 Abaqus/Standard 2024                  DATE 20-Mar-2025 TIME 09:22:10
 SUMMARY OF JOB INFORMATION:
 STEP  INC ATT SEVERE EQUIL TOTAL  TOTAL      STEP       INC OF       DOF    IF
               DISCON ITERS ITERS  TIME/    TIME/LPF    TIME/LPF    MONITOR RIKS
               ITERS               FREQ
   1     1   1     0     6     6  0.160      0.160      0.1600    
   2     1   1     0     3     3  0.160      1.00e-06   1.000e-06 
   2     2   1     0     2     2  0.160      2.00e-06   1.000e-06 
   2     3   1     0     2     2  0.160      3.00e-06   1.000e-06 
   2     4   1     0     2     2  0.160      4.50e-06   1.500e-06 
   2     5   1     0     2     2  0.160      6.75e-06   2.250e-06 
   2     6   1     0     2     2  0.160      1.01e-05   3.375e-06 
   2     7   1     0     2     2  0.160      1.52e-05   5.062e-06 
   2     8   1     0     2     2  0.160      2.28e-05   7.594e-06 
   2     9   1     0     2     2  0.160      3.42e-05   1.139e-05 
   2    10   1     0     2     2  0.160      5.13e-05   1.709e-05 
   2    11   1     0     2     2  0.160      7.69e-05   2.563e-05 
   2    12   1     0     2     2  0.160      0.000115   3.844e-05 
   2    13   1     0     2     2  0.160      0.000173   5.767e-05 
   2    14   1     0     2     2  0.160      0.000259   8.650e-05 
   2    15   1     0     2     2  0.160      0.000389   0.0001297 
   2    16   1     0     2     2  0.161      0.000584   0.0001946 
   2    17   1     0     2     2  0.161      0.000876   0.0002919 
   2    18   1     0     2     2  0.161      0.00131    0.0004379 
   2    19   1     0     2     2  0.162      0.00197    0.0006568 
   2    20   1     0     2     2  0.163      0.00296    0.0009853 
   2    21   1     0     2     2  0.164      0.00443    0.001478  
   2    22   1     0     2     2  0.167      0.00665    0.002217  
   2    23   1     0     2     2  0.170      0.00998    0.003325  
   2    24   1     0     2     2  0.175      0.0150     0.004988  
   2    25   1     0     2     2  0.182      0.0224     0.007482  
   2    26   1     0     2     2  0.194      0.0337     0.01122   
   2    27   1     0     2     2  0.211      0.0505     0.01683   
   2    28   1     0     2     2  0.236      0.0758     0.02525   
   2    29   1     0     2     2  0.274      0.114      0.03788   
   2    30   1     0     2     2  0.330      0.170      0.05682   
   2    31   1     0     2     2  0.416      0.256      0.08522   
   2    32   1     0     2     2  0.544      0.384      0.1278    
   2    33   1     0     2     2  0.735      0.575      0.1918    
   2    34   1     0     2     2  1.02       0.863      0.2876    
   2    35   1     0     2     2  1.45       1.29       0.4314    
   2    36   1     0     2     2  2.10       1.94       0.6472    
   2    37   1     0     2     2  3.07       2.91       0.9707    
   2    38   1     0     2     2  4.53       4.37       1.456     
   2    39   1     0     2     2  6.71       6.55       2.184     
   2    40   1     0     2     2  9.99       9.83       3.276     
   2    41   1     0     2     2  14.9       14.7       4.914     
   2    42   1     0     2     2  22.3       22.1       7.372     
   2    43   1     0     2     2  33.3       33.2       11.06     
   2    44   1     0     2     2  49.9       49.8       16.59     
   2    45   1     0     2     2  74.8       74.6       24.88     
   2    46   1     0     2     2  112.       112.       37.32     
   2    47   1     0     2     2  168.       168.       55.98     
   2    48   1     0     2     2  200.       200.       32.07     
                          
 THE ANALYSIS HAS COMPLETED SUCCESSFULLY
