 Abaqus/Standard 2024                  DATE 20-Mar-2025 TIME 15:20:43
 SUMMARY OF JOB INFORMATION:
 STEP  INC ATT SEVERE EQUIL TOTAL  TOTAL      STEP       INC OF       DOF    IF
               DISCON ITERS ITERS  TIME/    TIME/LPF    TIME/LPF    MONITOR RIKS
               ITERS               FREQ
   1     1   1     0     6     6  0.200      0.200      0.2000    
   2     1   1     0     6     6  0.200      1.00e-06   1.000e-06 
   2     2   1     0     2     2  0.200      2.00e-06   1.000e-06 
   2     3   1     0     1     1  0.200      3.00e-06   1.000e-06 
   2     4   1     0     1     1  0.200      5.00e-06   2.000e-06 
   2     5   1     0     1     1  0.200      9.00e-06   4.000e-06 
   2     6   1     0     1     1  0.200      1.70e-05   8.000e-06 
   2     7   1     0     1     1  0.200      3.30e-05   1.600e-05 
   2     8   1     0     6     6  0.200      6.50e-05   3.200e-05 
   2     9   1     0     2     2  0.200      9.70e-05   3.200e-05 
   2    10   1     0     4     4  0.200      0.000129   3.200e-05 
   2    11   1     0     5     5  0.200      0.000177   4.800e-05 
   2    12   1     0     3     3  0.200      0.000225   4.800e-05 
   2    13   1     0     5     5  0.200      0.000273   4.800e-05 
   2    14   1     0     3     3  0.200      0.000321   4.800e-05 
   2    15   1     0     4     4  0.200      0.000369   4.800e-05 
   2    16   1     0     2     2  0.200      0.000441   7.200e-05 
   2    17   1     0     2     2  0.201      0.000549   0.0001080 
   2    18   1     0     3     3  0.201      0.000711   0.0001620 
   2    19   1     0     3     3  0.201      0.000954   0.0002430 
   2    20   1     0     4     4  0.201      0.00132    0.0003645 
   2    21   1     0     3     3  0.202      0.00187    0.0005467 
   2    22   1     0     2     2  0.203      0.00269    0.0008201 
   2    23   1     0     2     2  0.204      0.00392    0.001230  
   2    24   1     0     2     2  0.206      0.00576    0.001845  
   2    25   1     0     2     2  0.209      0.00853    0.002768  
   2    26   1     0     2     2  0.213      0.0127     0.004152  
   2    27   1     0     2     2  0.219      0.0189     0.006228  
   2    28   1     0     2     2  0.228      0.0283     0.009342  
   2    29   1     0     2     2  0.242      0.0423     0.01401   
   2    30   1     0     2     2  0.263      0.0633     0.02102   
   2    31   1     0     2     2  0.295      0.0948     0.03153   
   2    32   1     0     2     2  0.342      0.142      0.04729   
   2    33   1     0     2     2  0.413      0.213      0.07094   
   2    34   1     0     2     2  0.519      0.319      0.1064    
   2    35   1     0     2     2  0.679      0.479      0.1596    
   2    36   1     0     2     2  0.918      0.718      0.2394    
   2    37   1     0     2     2  1.28       1.08       0.3591    
   2    38   1     0     2     2  1.82       1.62       0.5387    
   2    39   1     0     2     2  2.62       2.42       0.8080    
   2    40   1     0     2     2  3.84       3.64       1.212     
   2    41   1     0     2     2  5.65       5.45       1.818     
   2    42   1     0     2     2  8.38       8.18       2.727     
   2    43   1     0     2     2  12.5       12.3       4.091     
   2    44   1     0     2     2  18.6       18.4       6.136     
   2    45   1     0     2     2  27.8       27.6       9.204     
   2    46   1     0     2     2  41.6       41.4       13.81     
   2    47   1     0     2     2  62.3       62.1       20.71     
   2    48   1     0     2     2  93.4       93.2       31.06     
   2    49   1     0     2     2  140.       140.       46.60     
   2    50   1     0     2     2  200.       200.       60.21     
                          
 THE ANALYSIS HAS COMPLETED SUCCESSFULLY
