 Abaqus/Standard 2024                  DATE 20-Mar-2025 TIME 15:25:30
 SUMMARY OF JOB INFORMATION:
 STEP  INC ATT SEVERE EQUIL TOTAL  TOTAL      STEP       INC OF       DOF    IF
               DISCON ITERS ITERS  TIME/    TIME/LPF    TIME/LPF    MONITOR RIKS
               ITERS               FREQ
   1     1   1     0     5     5  0.200      0.200      0.2000    
   2     1   1     0     6     6  0.200      1.00e-06   1.000e-06 
   2     2   1U    0     5     5  0.200      1.00e-06   1.000e-06 
   2     2   2U    0     5     5  0.200      1.00e-06   2.500e-07 
   2     2   3     0     1     1  0.200      1.06e-06   6.250e-08 
   2     3   1     0     2     2  0.200      1.13e-06   6.250e-08 
   2     4   1     0     1     1  0.200      1.22e-06   9.375e-08 
   2     5   1     0     1     1  0.200      1.41e-06   1.875e-07 
   2     6   1     0     1     1  0.200      1.78e-06   3.750e-07 
   2     7   1     0     1     1  0.200      2.53e-06   7.500e-07 
   2     8   1     0     1     1  0.200      4.03e-06   1.500e-06 
   2     9   1     0     1     1  0.200      7.03e-06   3.000e-06 
   2    10   1     0     1     1  0.200      1.30e-05   6.000e-06 
   2    11   1     0     1     1  0.200      2.50e-05   1.200e-05 
   2    12   1     0     1     1  0.200      4.90e-05   2.400e-05 
   2    13   1     0     1     1  0.200      9.70e-05   4.800e-05 
   2    14   1     0     1     1  0.200      0.000193   9.600e-05 
   2    15   1     0     5     5  0.200      0.000385   0.0001920 
   2    16   1     0     3     3  0.201      0.000577   0.0001920 
   2    17   1     0     4     4  0.201      0.000769   0.0001920 
   2    18   1     0     3     3  0.201      0.00106    0.0002880 
   2    19   1     0     3     3  0.201      0.00149    0.0004320 
   2    20   1     0     4     4  0.202      0.00214    0.0006480 
   2    21   1     0     3     3  0.203      0.00311    0.0009720 
   2    22   1     0     3     3  0.205      0.00457    0.001458  
   2    23   1     0     2     2  0.207      0.00675    0.002187  
   2    24   1     0     2     2  0.210      0.0100     0.003280  
   2    25   1     0     2     2  0.215      0.0150     0.004921  
   2    26   1     0     2     2  0.222      0.0223     0.007381  
   2    27   1     0     2     2  0.233      0.0334     0.01107   
   2    28   1     0     2     2  0.250      0.0500     0.01661   
   2    29   1     0     2     2  0.275      0.0749     0.02491   
   2    30   1     0     2     2  0.312      0.112      0.03737   
   2    31   1     0     2     2  0.368      0.168      0.05605   
   2    32   1     0     2     2  0.452      0.252      0.08408   
   2    33   1     0     2     2  0.579      0.379      0.1261    
   2    34   1     0     2     2  0.768      0.568      0.1892    
   2    35   1     0     2     2  1.05       0.851      0.2838    
   2    36   1     0     2     2  1.48       1.28       0.4256    
   2    37   1     0     2     2  2.12       1.92       0.6384    
   2    38   1     0     2     2  3.07       2.87       0.9577    
   2    39   1     0     2     2  4.51       4.31       1.437     
   2    40   1     0     2     2  6.66       6.46       2.155     
   2    41   1     0     2     2  9.90       9.70       3.232     
   2    42   1     0     2     2  14.7       14.5       4.848     
   2    43   1     0     2     2  22.0       21.8       7.272     
   2    44   1     0     2     2  32.9       32.7       10.91     
   2    45   1     0     2     2  49.3       49.1       16.36     
   2    46   1     0     2     2  73.8       73.6       24.54     
   2    47   1     0     2     2  111.       110.       36.82     
   2    48   1     0     2     2  166.       166.       55.22     
   2    49   1     0     2     2  200.       200.       34.33     
                          
 THE ANALYSIS HAS COMPLETED SUCCESSFULLY
