1

   Abaqus 2024                                  Date 20-Mar-2025   Time 15:25:30
   For use by UNIVERSITY OF BRISTOL under license from Dassault Systemes or its subsidiary.

                                                                                 
                                                                                 
 STEP    1     INCREMENT     1     STEP TIME    0.00    


                        S T E P       1     S T A T I C   A N A L Y S I S


                                                                                          

     AUTOMATIC TIME CONTROL WITH -
          A SUGGESTED INITIAL TIME INCREMENT OF                0.200    
          AND A TOTAL TIME PERIOD OF                           0.200    
          THE MINIMUM TIME INCREMENT ALLOWED IS                2.000E-06
          THE MAXIMUM TIME INCREMENT ALLOWED IS                0.200    

     LINEAR EQUATION SOLVER TYPE         DIRECT SPARSE

 CONVERGENCE TOLERANCE PARAMETERS FOR FORCE    
     CRITERION FOR RESIDUAL FORCE     FOR A NONLINEAR PROBLEM          5.000E-03
     CRITERION FOR DISP.    CORRECTION IN A NONLINEAR PROBLEM          1.000E-02
     INITIAL VALUE OF TIME AVERAGE FORCE                               1.000E-02
     AVERAGE FORCE     IS TIME AVERAGE FORCE    
     ALTERNATE CRIT. FOR RESIDUAL FORCE     FOR A NONLINEAR PROBLEM    2.000E-02
     CRITERION FOR ZERO FORCE     RELATIVE TO TIME AVRG. FORCE         1.000E-05
     CRITERION FOR RESIDUAL FORCE     WHEN THERE IS ZERO FLUX          1.000E-05
     CRITERION FOR DISP.    CORRECTION WHEN THERE IS ZERO FLUX         1.000E-03
     CRITERION FOR RESIDUAL FORCE     FOR A LINEAR INCREMENT           1.000E-08
     FIELD CONVERSION RATIO                                             1.00    
     CRITERION FOR ZERO FORCE     REL. TO TIME AVRG. MAX. FORCE        1.000E-05
     CRITERION FOR ZERO DISP.    RELATIVE TO CHARACTERISTIC LENGTH     1.000E-08

 CONVERGENCE TOLERANCE PARAMETERS FOR MOMENT   
     CRITERION FOR RESIDUAL MOMENT    FOR A NONLINEAR PROBLEM          5.000E-03
     CRITERION FOR ROTATION CORRECTION IN A NONLINEAR PROBLEM          1.000E-02
     INITIAL VALUE OF TIME AVERAGE MOMENT                              1.000E-02
     AVERAGE MOMENT    IS TIME AVERAGE MOMENT   
     ALTERNATE CRIT. FOR RESIDUAL MOMENT    FOR A NONLINEAR PROBLEM    2.000E-02
     CRITERION FOR ZERO MOMENT    RELATIVE TO TIME AVRG. MOMENT        1.000E-05
     CRITERION FOR RESIDUAL MOMENT    WHEN THERE IS ZERO FLUX          1.000E-05
     CRITERION FOR ROTATION CORRECTION WHEN THERE IS ZERO FLUX         1.000E-03
     CRITERION FOR RESIDUAL MOMENT    FOR A LINEAR INCREMENT           1.000E-08
     FIELD CONVERSION RATIO                                             1.00    
     CRITERION FOR ZERO MOMENT    REL. TO TIME AVRG. MAX. MOMENT       1.000E-05

     VOLUMETRIC STRAIN COMPATIBILITY TOLERANCE FOR HYBRID SOLIDS       1.000E-05
     AXIAL STRAIN COMPATIBILITY TOLERANCE FOR HYBRID BEAMS             1.000E-05
     TRANS. SHEAR STRAIN COMPATIBILITY TOLERANCE FOR HYBRID BEAMS      1.000E-05
     SOFT CONTACT CONSTRAINT COMPATIBILITY TOLERANCE FOR P>P0          5.000E-03
     SOFT CONTACT CONSTRAINT COMPATIBILITY TOLERANCE FOR P=0.0         0.100    
     CONTACT FORCE ERROR TOLERANCE FOR CONVERT SDI=YES                 1.00    
     DISPLACEMENT COMPATIBILITY TOLERANCE FOR DCOUP ELEMENTS           1.000E-05
     ROTATION COMPATIBILITY TOLERANCE FOR DCOUP ELEMENTS               1.000E-05

 EQUILIBRIUM WILL BE CHECKED FOR SEVERE DISCONTINUITY ITERATIONS

 TIME INCREMENTATION CONTROL PARAMETERS:
     FIRST EQUILIBRIUM ITERATION FOR CONSECUTIVE DIVERGENCE CHECK              4
     EQUILIBRIUM ITERATION AT WHICH LOG. CONVERGENCE RATE CHECK BEGINS         8
     EQUILIBRIUM ITERATION AFTER WHICH ALTERNATE RESIDUAL IS USED              9
     MAXIMUM EQUILIBRIUM ITERATIONS ALLOWED                                   16
     EQUILIBRIUM ITERATION COUNT FOR CUT-BACK IN NEXT INCREMENT               10
     MAXIMUM EQUILIB. ITERS IN TWO INCREMENTS FOR TIME INCREMENT INCREASE      4
     MAXIMUM ITERATIONS FOR SEVERE DISCONTINUITIES                            50
     MAXIMUM ATTEMPTS ALLOWED IN AN INCREMENT                                  5
     MAXIMUM DISCON. ITERS IN TWO INCREMENTS FOR TIME INCREMENT INCREASE      50
     MAXIMUM CONTACT AUGMENTATIONS FOR *SURFACE BEHAVIOR,AUGMENTED LAGRANGE   50
     CUT-BACK FACTOR AFTER DIVERGENCE                                 0.2500    
     CUT-BACK FACTOR FOR TOO SLOW CONVERGENCE                         0.5000    
     CUT-BACK FACTOR AFTER TOO MANY EQUILIBRIUM ITERATIONS            0.7500    
     CUT-BACK FACTOR AFTER TOO MANY SEVERE DISCONTINUITY ITERATIONS   0.2500    
     CUT-BACK FACTOR AFTER PROBLEMS IN ELEMENT ASSEMBLY               0.2500    
     INCREASE FACTOR AFTER TWO INCREMENTS THAT CONVERGE QUICKLY        1.500    
     MAX. TIME INCREMENT INCREASE FACTOR ALLOWED                       1.500    
     MAX. TIME INCREMENT INCREASE FACTOR ALLOWED (DYNAMICS)            1.250    
     MAX. TIME INCREMENT INCREASE FACTOR ALLOWED (DIFFUSION)           2.000    
     MINIMUM TIME INCREMENT RATIO FOR EXTRAPOLATION TO OCCUR          0.1000    
     MAX. RATIO OF TIME INCREMENT TO STABILITY LIMIT                   1.000    
     FRACTION OF STABILITY LIMIT FOR NEW TIME INCREMENT               0.9500    
     TIME INCREMENT INCREASE FACTOR BEFORE A TIME POINT                1.000    
     GLOBAL STABILIZATION CONTROL IS NOT USED

          PRINT OF INCREMENT NUMBER, TIME, ETC., EVERY    1  INCREMENTS

     THE MAXIMUM NUMBER OF INCREMENTS IN THIS STEP IS                     100

          LARGE DISPLACEMENT THEORY WILL BE USED

     LINEAR EXTRAPOLATION WILL BE USED

     CHARACTERISTIC ELEMENT LENGTH     0.465    

     DETAILS REGARDING ACTUAL SOLUTION WAVEFRONT REQUESTED

     DETAILED OUTPUT OF DIAGNOSTICS TO DATABASE REQUESTED

     PRINT OF INCREMENT NUMBER, TIME, ETC., TO THE MESSAGE FILE EVERY     1  INCREMENTS

     COLLECTING MODEL CONSTRAINT INFORMATION FOR OVERCONSTRAINT CHECKS

     COLLECTING STEP CONSTRAINT INFORMATION FOR OVERCONSTRAINT CHECKS


  INCREMENT     1 STARTS. ATTEMPT NUMBER  1, TIME INCREMENT  0.200    
 
	SYMMETRIC NEW DIRECT SPARSE SOLVER RUNNING ON
 	1 HOST x 1 MPI RANK PER HOST x 1 THREAD PER RANK
        NUMBER OF EQUATIONS:  3023
        NUMBER OF RHS:        1
        NUMBER OF FLOPS:      3.852e+06
        SOLVER ELAPSED TIME:  7ms

               CONVERGENCE CHECKS FOR EQUILIBRIUM ITERATION     1


 AVERAGE FORCE                       150.       TIME AVG. FORCE        150.    
 LARGEST SCALED RESIDUAL FORCE      -489.       AT NODE         96   DOF  1
   INSTANCE: ELG Specimen 2024-1                                                             
  CORRESPONDING RESIDUAL FORCE      -489.    
 LARGEST INCREMENT OF DISP.         7.103E-02   AT NODE          1   DOF  2
   INSTANCE: {assembly node}                                                                 
 LARGEST CORRECTION TO DISP.        7.103E-02   AT NODE          1   DOF  2
   INSTANCE: {assembly node}                                                                 
          FORCE     EQUILIBRIUM NOT ACHIEVED WITHIN TOLERANCE.

 AVERAGE MOMENT                      0.00       TIME AVG. MOMENT       69.9    
                                                (FROM FORCE     FIELD)
 ALL MOMENT    RESIDUALS ARE ZERO
 LARGEST INCREMENT OF ROTATION     -1.407E-32   AT NODE          1   DOF  6
   INSTANCE: {assembly node}                                                                 
 LARGEST CORRECTION TO ROTATION    -1.407E-32   AT NODE          1   DOF  6
   INSTANCE: {assembly node}                                                                 
          THERE IS ZERO MOMENT    EVERYWHERE
 
	SYMMETRIC NEW DIRECT SPARSE SOLVER RUNNING ON
 	1 HOST x 1 MPI RANK PER HOST x 1 THREAD PER RANK
        NUMBER OF EQUATIONS:  3023
        NUMBER OF RHS:        1
        NUMBER OF FLOPS:      3.852e+06
        SOLVER ELAPSED TIME:  5ms

               CONVERGENCE CHECKS FOR EQUILIBRIUM ITERATION     2


 AVERAGE FORCE                       139.       TIME AVG. FORCE        139.    
 LARGEST SCALED RESIDUAL FORCE      -736.       AT NODE        347   DOF  1
   INSTANCE: ELG Specimen 2024-1                                                             
  CORRESPONDING RESIDUAL FORCE      -736.    
 LARGEST INCREMENT OF DISP.         0.656       AT NODE          1   DOF  2
   INSTANCE: {assembly node}                                                                 
 LARGEST CORRECTION TO DISP.        0.586       AT NODE         87   DOF  2
   INSTANCE: ELG Specimen 2024-1                                                             
          FORCE     EQUILIBRIUM NOT ACHIEVED WITHIN TOLERANCE.

 AVERAGE MOMENT                      0.00       TIME AVG. MOMENT       64.6    
                                                (FROM FORCE     FIELD)
 ALL MOMENT    RESIDUALS ARE ZERO
 LARGEST INCREMENT OF ROTATION     -1.411E-32   AT NODE          1   DOF  6
   INSTANCE: {assembly node}                                                                 
 LARGEST CORRECTION TO ROTATION    -3.776E-35   AT NODE          1   DOF  6
   INSTANCE: {assembly node}                                                                 
          THERE IS ZERO MOMENT    EVERYWHERE
 
	SYMMETRIC NEW DIRECT SPARSE SOLVER RUNNING ON
 	1 HOST x 1 MPI RANK PER HOST x 1 THREAD PER RANK
        NUMBER OF EQUATIONS:  3023
        NUMBER OF RHS:        1
        NUMBER OF FLOPS:      3.852e+06
        SOLVER ELAPSED TIME:  6ms

 ***WARNING: THE STRAIN INCREMENT HAS EXCEEDED FIFTY TIMES THE STRAIN TO CAUSE 
             FIRST YIELD AT 627 POINTS

               CONVERGENCE CHECKS FOR EQUILIBRIUM ITERATION     3


 AVERAGE FORCE                       181.       TIME AVG. FORCE        181.    
 LARGEST SCALED RESIDUAL FORCE      1.024E+03   AT NODE        254   DOF  1
   INSTANCE: ELG Specimen 2024-1                                                             
  CORRESPONDING RESIDUAL FORCE      1.024E+03
 LARGEST INCREMENT OF DISP.          1.89       AT NODE          1   DOF  2
   INSTANCE: {assembly node}                                                                 
 LARGEST CORRECTION TO DISP.         1.23       AT NODE        359   DOF  2
   INSTANCE: ELG Specimen 2024-1                                                             
          FORCE     EQUILIBRIUM NOT ACHIEVED WITHIN TOLERANCE.

 AVERAGE MOMENT                      0.00       TIME AVG. MOMENT       84.3    
                                                (FROM FORCE     FIELD)
 ALL MOMENT    RESIDUALS ARE ZERO
 LARGEST INCREMENT OF ROTATION     -1.411E-32   AT NODE          1   DOF  6
   INSTANCE: {assembly node}                                                                 
 LARGEST CORRECTION TO ROTATION     1.323E-36   AT NODE          1   DOF  6
   INSTANCE: {assembly node}                                                                 
          THERE IS ZERO MOMENT    EVERYWHERE
 
	SYMMETRIC NEW DIRECT SPARSE SOLVER RUNNING ON
 	1 HOST x 1 MPI RANK PER HOST x 1 THREAD PER RANK
        NUMBER OF EQUATIONS:  3023
        NUMBER OF RHS:        1
        NUMBER OF FLOPS:      3.852e+06
        SOLVER ELAPSED TIME:  7ms

 ***WARNING: THE STRAIN INCREMENT HAS EXCEEDED FIFTY TIMES THE STRAIN TO CAUSE 
             FIRST YIELD AT 640 POINTS

               CONVERGENCE CHECKS FOR EQUILIBRIUM ITERATION     4


 AVERAGE FORCE                       162.       TIME AVG. FORCE        162.    
 LARGEST SCALED RESIDUAL FORCE      -57.9       AT NODE       1513   DOF  1
   INSTANCE: ELG Specimen 2024-1                                                             
  CORRESPONDING RESIDUAL FORCE      -57.9    
 LARGEST INCREMENT OF DISP.          1.93       AT NODE          1   DOF  2
   INSTANCE: {assembly node}                                                                 
 LARGEST CORRECTION TO DISP.        4.683E-02   AT NODE        102   DOF  2
   INSTANCE: ELG Specimen 2024-1                                                             
          FORCE     EQUILIBRIUM NOT ACHIEVED WITHIN TOLERANCE.

 AVERAGE MOMENT                      0.00       TIME AVG. MOMENT       75.2    
                                                (FROM FORCE     FIELD)
 ALL MOMENT    RESIDUALS ARE ZERO
 LARGEST INCREMENT OF ROTATION     -1.411E-32   AT NODE          1   DOF  6
   INSTANCE: {assembly node}                                                                 
 LARGEST CORRECTION TO ROTATION     7.695E-37   AT NODE          1   DOF  6
   INSTANCE: {assembly node}                                                                 
          THERE IS ZERO MOMENT    EVERYWHERE
 
	SYMMETRIC NEW DIRECT SPARSE SOLVER RUNNING ON
 	1 HOST x 1 MPI RANK PER HOST x 1 THREAD PER RANK
        NUMBER OF EQUATIONS:  3023
        NUMBER OF RHS:        1
        NUMBER OF FLOPS:      3.852e+06
        SOLVER ELAPSED TIME:  6ms

 ***WARNING: THE STRAIN INCREMENT HAS EXCEEDED FIFTY TIMES THE STRAIN TO CAUSE 
             FIRST YIELD AT 642 POINTS

               CONVERGENCE CHECKS FOR EQUILIBRIUM ITERATION     5


 AVERAGE FORCE                       162.       TIME AVG. FORCE        162.    
 LARGEST SCALED RESIDUAL FORCE      0.473       AT NODE        640   DOF  1
   INSTANCE: ELG Specimen 2024-1                                                             
  CORRESPONDING RESIDUAL FORCE      0.473    
 LARGEST INCREMENT OF DISP.          1.93       AT NODE          1   DOF  2
   INSTANCE: {assembly node}                                                                 
 LARGEST CORRECTION TO DISP.       -1.226E-03   AT NODE        260   DOF  2
   INSTANCE: ELG Specimen 2024-1                                                             
          THE FORCE     EQUILIBRIUM EQUATIONS HAVE CONVERGED

 AVERAGE MOMENT                      0.00       TIME AVG. MOMENT       75.2    
                                                (FROM FORCE     FIELD)
 ALL MOMENT    RESIDUALS ARE ZERO
 LARGEST INCREMENT OF ROTATION     -1.411E-32   AT NODE          1   DOF  6
   INSTANCE: {assembly node}                                                                 
 LARGEST CORRECTION TO ROTATION    -4.158E-37   AT NODE          1   DOF  6
   INSTANCE: {assembly node}                                                                 
          THERE IS ZERO MOMENT    EVERYWHERE

 ITERATION SUMMARY FOR THE INCREMENT:   5 TOTAL ITERATIONS, OF WHICH
   0 ARE SEVERE DISCONTINUITY ITERATIONS AND  5 ARE EQUILIBRIUM ITERATIONS.

 TIME INCREMENT COMPLETED  0.200    ,  FRACTION OF STEP COMPLETED   1.00    
 STEP TIME COMPLETED       0.200    ,  TOTAL TIME COMPLETED        0.200    
1

   Abaqus 2024                                  Date 20-Mar-2025   Time 15:25:30
   For use by UNIVERSITY OF BRISTOL under license from Dassault Systemes or its subsidiary.

                                                                                 
                                                                                 
 STEP    2     INCREMENT     1     STEP TIME    0.00    


                        S T E P       2     V I S C O   A N A L Y S I S


                                                                                          

     AUTOMATIC TIME CONTROL WITH -
          A SUGGESTED INITIAL TIME INCREMENT OF                1.000E-06
          AND A TOTAL TIME PERIOD OF                            200.    
          THE MINIMUM TIME INCREMENT ALLOWED IS                1.000E-09
          THE MAXIMUM TIME INCREMENT ALLOWED IS                 200.    

     THE SIZE OF THE TIME INCREMENT IS CONTROLLED BY -
          THE PARAMETER  CETOL                                 1.000E-05

                              IMPLICIT TIME INTEGRATION WILL BE USED

 CONVERGENCE TOLERANCE PARAMETERS FOR FORCE    
     CRITERION FOR RESIDUAL FORCE     FOR A NONLINEAR PROBLEM          5.000E-03
     CRITERION FOR DISP.    CORRECTION IN A NONLINEAR PROBLEM          1.000E-02
     INIT. VALUE OF TIME AVG. FORCE     IS TIME AVG. FORCE     IN PREVIOUS STEP
     AVERAGE FORCE     IS TIME AVERAGE FORCE    
     ALTERNATE CRIT. FOR RESIDUAL FORCE     FOR A NONLINEAR PROBLEM    2.000E-02
     CRITERION FOR ZERO FORCE     RELATIVE TO TIME AVRG. FORCE         1.000E-05
     CRITERION FOR RESIDUAL FORCE     WHEN THERE IS ZERO FLUX          1.000E-05
     CRITERION FOR DISP.    CORRECTION WHEN THERE IS ZERO FLUX         1.000E-03
     CRITERION FOR RESIDUAL FORCE     FOR A LINEAR INCREMENT           1.000E-08
     FIELD CONVERSION RATIO                                             1.00    
     CRITERION FOR ZERO FORCE     REL. TO TIME AVRG. MAX. FORCE        1.000E-05
     CRITERION FOR ZERO DISP.    RELATIVE TO CHARACTERISTIC LENGTH     1.000E-08

 CONVERGENCE TOLERANCE PARAMETERS FOR MOMENT   
     CRITERION FOR RESIDUAL MOMENT    FOR A NONLINEAR PROBLEM          5.000E-03
     CRITERION FOR ROTATION CORRECTION IN A NONLINEAR PROBLEM          1.000E-02
     INIT. VALUE OF TIME AVG. MOMENT    IS TIME AVG. MOMENT    IN PREVIOUS STEP
     AVERAGE MOMENT    IS TIME AVERAGE MOMENT   
     ALTERNATE CRIT. FOR RESIDUAL MOMENT    FOR A NONLINEAR PROBLEM    2.000E-02
     CRITERION FOR ZERO MOMENT    RELATIVE TO TIME AVRG. MOMENT        1.000E-05
     CRITERION FOR RESIDUAL MOMENT    WHEN THERE IS ZERO FLUX          1.000E-05
     CRITERION FOR ROTATION CORRECTION WHEN THERE IS ZERO FLUX         1.000E-03
     CRITERION FOR RESIDUAL MOMENT    FOR A LINEAR INCREMENT           1.000E-08
     FIELD CONVERSION RATIO                                             1.00    
     CRITERION FOR ZERO MOMENT    REL. TO TIME AVRG. MAX. MOMENT       1.000E-05

     VOLUMETRIC STRAIN COMPATIBILITY TOLERANCE FOR HYBRID SOLIDS       1.000E-05
     AXIAL STRAIN COMPATIBILITY TOLERANCE FOR HYBRID BEAMS             1.000E-05
     TRANS. SHEAR STRAIN COMPATIBILITY TOLERANCE FOR HYBRID BEAMS      1.000E-05
     SOFT CONTACT CONSTRAINT COMPATIBILITY TOLERANCE FOR P>P0          5.000E-03
     SOFT CONTACT CONSTRAINT COMPATIBILITY TOLERANCE FOR P=0.0         0.100    
     CONTACT FORCE ERROR TOLERANCE FOR CONVERT SDI=YES                 1.00    
     DISPLACEMENT COMPATIBILITY TOLERANCE FOR DCOUP ELEMENTS           1.000E-05
     ROTATION COMPATIBILITY TOLERANCE FOR DCOUP ELEMENTS               1.000E-05

 EQUILIBRIUM WILL BE CHECKED FOR SEVERE DISCONTINUITY ITERATIONS

 TIME INCREMENTATION CONTROL PARAMETERS:
     FIRST EQUILIBRIUM ITERATION FOR CONSECUTIVE DIVERGENCE CHECK              4
     EQUILIBRIUM ITERATION AT WHICH LOG. CONVERGENCE RATE CHECK BEGINS         8
     EQUILIBRIUM ITERATION AFTER WHICH ALTERNATE RESIDUAL IS USED              9
     MAXIMUM EQUILIBRIUM ITERATIONS ALLOWED                                   16
     EQUILIBRIUM ITERATION COUNT FOR CUT-BACK IN NEXT INCREMENT               10
     MAXIMUM EQUILIB. ITERS IN TWO INCREMENTS FOR TIME INCREMENT INCREASE      4
     MAXIMUM ITERATIONS FOR SEVERE DISCONTINUITIES                            50
     MAXIMUM ATTEMPTS ALLOWED IN AN INCREMENT                                  5
     MAXIMUM DISCON. ITERS IN TWO INCREMENTS FOR TIME INCREMENT INCREASE      50
     MAXIMUM CONTACT AUGMENTATIONS FOR *SURFACE BEHAVIOR,AUGMENTED LAGRANGE   50
     CONSECUTIVE INCS MEETING TIME INTEG. TOL. FOR TIME INC. INCREASE          3
     CUT-BACK FACTOR AFTER DIVERGENCE                                 0.2500    
     CUT-BACK FACTOR FOR TOO SLOW CONVERGENCE                         0.5000    
     CUT-BACK FACTOR AFTER TOO MANY EQUILIBRIUM ITERATIONS            0.7500    
     CUT-BACK FACTOR AFTER TOO MANY SEVERE DISCONTINUITY ITERATIONS   0.2500    
     CUT-BACK FACTOR AFTER PROBLEMS IN ELEMENT ASSEMBLY               0.2500    
     INCREASE FACTOR AFTER TWO INCREMENTS THAT CONVERGE QUICKLY        1.500    
     MAX. TIME INCREMENT INCREASE FACTOR ALLOWED                       1.500    
     MAX. TIME INCREMENT INCREASE FACTOR ALLOWED (DYNAMICS)            1.250    
     MAX. TIME INCREMENT INCREASE FACTOR ALLOWED (DIFFUSION)           2.000    
     MINIMUM TIME INCREMENT RATIO FOR EXTRAPOLATION TO OCCUR          0.1000    
     CUT-BACK FACTOR WHEN TIME INTEGRATION ACCURACY TOL. EXCEEDED     0.8500    
     MAX. RATIO OF TIME INTEG. MEASURE TO TOL. FOR TIME INC. INCREASE 0.7500    
     INCREASE FACTOR FOR TIME INCREMENT WHEN POSSIBLE                 0.8000    
     MIN. TIME INC. INCREASE FACTOR IN LINEAR TRANSIENT PROBLEMS      0.9500    
     MAX. RATIO OF TIME INCREMENT TO STABILITY LIMIT                   1.000    
     FRACTION OF STABILITY LIMIT FOR NEW TIME INCREMENT               0.9500    
     TIME INCREMENT INCREASE FACTOR BEFORE A TIME POINT                1.000    
     GLOBAL STABILIZATION CONTROL IS NOT USED

          PRINT OF INCREMENT NUMBER, TIME, ETC., EVERY    1  INCREMENTS

     THE MAXIMUM NUMBER OF INCREMENTS IN THIS STEP IS                 9999999

          LARGE DISPLACEMENT THEORY WILL BE USED

     LINEAR EXTRAPOLATION WILL BE USED

     CHARACTERISTIC ELEMENT LENGTH     0.465    

     DETAILS REGARDING ACTUAL SOLUTION WAVEFRONT REQUESTED

     DETAILED OUTPUT OF DIAGNOSTICS TO DATABASE REQUESTED

     PRINT OF INCREMENT NUMBER, TIME, ETC., TO THE MESSAGE FILE EVERY     1  INCREMENTS

     COLLECTING STEP CONSTRAINT INFORMATION FOR OVERCONSTRAINT CHECKS


  INCREMENT     1 STARTS. ATTEMPT NUMBER  1, TIME INCREMENT  1.000E-06
 
	SYMMETRIC NEW DIRECT SPARSE SOLVER RUNNING ON
 	1 HOST x 1 MPI RANK PER HOST x 1 THREAD PER RANK
        NUMBER OF EQUATIONS:  3023
        NUMBER OF RHS:        1
        NUMBER OF FLOPS:      3.852e+06
        SOLVER ELAPSED TIME:  6ms

               CONVERGENCE CHECKS FOR EQUILIBRIUM ITERATION     1


 AVERAGE FORCE                       247.       TIME AVG. FORCE        247.    
 LARGEST SCALED RESIDUAL FORCE     -0.158       AT NODE        101   DOF  1
   INSTANCE: ELG Specimen 2024-1                                                             
  CORRESPONDING RESIDUAL FORCE     -0.158    
 LARGEST INCREMENT OF DISP.         2.433E-07   AT NODE        337   DOF  2
   INSTANCE: ELG Specimen 2024-1                                                             
 LARGEST CORRECTION TO DISP.        2.433E-07   AT NODE        337   DOF  2
   INSTANCE: ELG Specimen 2024-1                                                             
          DISP.    CORRECTION TOO LARGE COMPARED TO DISP.    INCREMENT

 AVERAGE MOMENT                      0.00       TIME AVG. MOMENT       115.    
                                                (FROM FORCE     FIELD)
 ALL MOMENT    RESIDUALS ARE ZERO
 LARGEST INCREMENT OF ROTATION     -1.411E-32   AT NODE          1   DOF  6
   INSTANCE: {assembly node}                                                                 
 LARGEST CORRECTION TO ROTATION    -1.411E-32   AT NODE          1   DOF  6
   INSTANCE: {assembly node}                                                                 
          THERE IS ZERO MOMENT    EVERYWHERE
 
	SYMMETRIC NEW DIRECT SPARSE SOLVER RUNNING ON
 	1 HOST x 1 MPI RANK PER HOST x 1 THREAD PER RANK
        NUMBER OF EQUATIONS:  3023
        NUMBER OF RHS:        1
        NUMBER OF FLOPS:      3.852e+06
        SOLVER ELAPSED TIME:  5ms

               CONVERGENCE CHECKS FOR EQUILIBRIUM ITERATION     2


 AVERAGE FORCE                       247.       TIME AVG. FORCE        247.    
 LARGEST SCALED RESIDUAL FORCE     -6.062E-02   AT NODE       1498   DOF  1
   INSTANCE: ELG Specimen 2024-1                                                             
  CORRESPONDING RESIDUAL FORCE     -6.062E-02
 LARGEST INCREMENT OF DISP.         1.937E-06   AT NODE        102   DOF  2
   INSTANCE: ELG Specimen 2024-1                                                             
 LARGEST CORRECTION TO DISP.        1.935E-06   AT NODE        102   DOF  2
   INSTANCE: ELG Specimen 2024-1                                                             
          DISP.    CORRECTION TOO LARGE COMPARED TO DISP.    INCREMENT

 AVERAGE MOMENT                      0.00       TIME AVG. MOMENT       115.    
                                                (FROM FORCE     FIELD)
 ALL MOMENT    RESIDUALS ARE ZERO
 LARGEST INCREMENT OF ROTATION     -1.411E-32   AT NODE          1   DOF  6
   INSTANCE: {assembly node}                                                                 
 LARGEST CORRECTION TO ROTATION     3.273E-40   AT NODE          1   DOF  6
   INSTANCE: {assembly node}                                                                 
          THERE IS ZERO MOMENT    EVERYWHERE
 
	SYMMETRIC NEW DIRECT SPARSE SOLVER RUNNING ON
 	1 HOST x 1 MPI RANK PER HOST x 1 THREAD PER RANK
        NUMBER OF EQUATIONS:  3023
        NUMBER OF RHS:        1
        NUMBER OF FLOPS:      3.852e+06
        SOLVER ELAPSED TIME:  5ms

               CONVERGENCE CHECKS FOR EQUILIBRIUM ITERATION     3


 AVERAGE FORCE                       247.       TIME AVG. FORCE        247.    
 LARGEST SCALED RESIDUAL FORCE     -3.154E-02   AT NODE        195   DOF  2
   INSTANCE: ELG Specimen 2024-1                                                             
  CORRESPONDING RESIDUAL FORCE     -3.154E-02
 LARGEST INCREMENT OF DISP.         6.225E-06   AT NODE        102   DOF  2
   INSTANCE: ELG Specimen 2024-1                                                             
 LARGEST CORRECTION TO DISP.        4.326E-06   AT NODE         86   DOF  2
   INSTANCE: ELG Specimen 2024-1                                                             
          DISP.    CORRECTION TOO LARGE COMPARED TO DISP.    INCREMENT

 AVERAGE MOMENT                      0.00       TIME AVG. MOMENT       115.    
                                                (FROM FORCE     FIELD)
 ALL MOMENT    RESIDUALS ARE ZERO
 LARGEST INCREMENT OF ROTATION     -1.411E-32   AT NODE          1   DOF  6
   INSTANCE: {assembly node}                                                                 
 LARGEST CORRECTION TO ROTATION    -2.366E-40   AT NODE          1   DOF  6
   INSTANCE: {assembly node}                                                                 
          THERE IS ZERO MOMENT    EVERYWHERE
 
	SYMMETRIC NEW DIRECT SPARSE SOLVER RUNNING ON
 	1 HOST x 1 MPI RANK PER HOST x 1 THREAD PER RANK
        NUMBER OF EQUATIONS:  3023
        NUMBER OF RHS:        1
        NUMBER OF FLOPS:      3.852e+06
        SOLVER ELAPSED TIME:  6ms

               CONVERGENCE CHECKS FOR EQUILIBRIUM ITERATION     4


 AVERAGE FORCE                       247.       TIME AVG. FORCE        247.    
 LARGEST SCALED RESIDUAL FORCE     -3.526E-02   AT NODE        892   DOF  1
   INSTANCE: ELG Specimen 2024-1                                                             
  CORRESPONDING RESIDUAL FORCE     -3.526E-02
 LARGEST INCREMENT OF DISP.         9.394E-06   AT NODE        102   DOF  2
   INSTANCE: ELG Specimen 2024-1                                                             
 LARGEST CORRECTION TO DISP.        3.196E-06   AT NODE        109   DOF  2
   INSTANCE: ELG Specimen 2024-1                                                             
          DISP.    CORRECTION TOO LARGE COMPARED TO DISP.    INCREMENT

 AVERAGE MOMENT                      0.00       TIME AVG. MOMENT       115.    
                                                (FROM FORCE     FIELD)
 ALL MOMENT    RESIDUALS ARE ZERO
 LARGEST INCREMENT OF ROTATION     -1.411E-32   AT NODE          1   DOF  6
   INSTANCE: {assembly node}                                                                 
 LARGEST CORRECTION TO ROTATION     8.729E-41   AT NODE          1   DOF  6
   INSTANCE: {assembly node}                                                                 
          THERE IS ZERO MOMENT    EVERYWHERE
 
	SYMMETRIC NEW DIRECT SPARSE SOLVER RUNNING ON
 	1 HOST x 1 MPI RANK PER HOST x 1 THREAD PER RANK
        NUMBER OF EQUATIONS:  3023
        NUMBER OF RHS:        1
        NUMBER OF FLOPS:      3.852e+06
        SOLVER ELAPSED TIME:  6ms

               CONVERGENCE CHECKS FOR EQUILIBRIUM ITERATION     5


 AVERAGE FORCE                       247.       TIME AVG. FORCE        247.    
 LARGEST SCALED RESIDUAL FORCE     -4.555E-03   AT NODE       1020   DOF  1
   INSTANCE: ELG Specimen 2024-1                                                             
  CORRESPONDING RESIDUAL FORCE     -4.555E-03
 LARGEST INCREMENT OF DISP.         1.151E-05   AT NODE        102   DOF  2
   INSTANCE: ELG Specimen 2024-1                                                             
 LARGEST CORRECTION TO DISP.        2.147E-06   AT NODE        108   DOF  2
   INSTANCE: ELG Specimen 2024-1                                                             
          DISP.    CORRECTION TOO LARGE COMPARED TO DISP.    INCREMENT

 AVERAGE MOMENT                      0.00       TIME AVG. MOMENT       115.    
                                                (FROM FORCE     FIELD)
 ALL MOMENT    RESIDUALS ARE ZERO
 LARGEST INCREMENT OF ROTATION     -1.411E-32   AT NODE          1   DOF  6
   INSTANCE: {assembly node}                                                                 
 LARGEST CORRECTION TO ROTATION    -3.379E-41   AT NODE          1   DOF  6
   INSTANCE: {assembly node}                                                                 
          THERE IS ZERO MOMENT    EVERYWHERE
 
	SYMMETRIC NEW DIRECT SPARSE SOLVER RUNNING ON
 	1 HOST x 1 MPI RANK PER HOST x 1 THREAD PER RANK
        NUMBER OF EQUATIONS:  3023
        NUMBER OF RHS:        1
        NUMBER OF FLOPS:      3.852e+06
        SOLVER ELAPSED TIME:  6ms

               CONVERGENCE CHECKS FOR EQUILIBRIUM ITERATION     6


 AVERAGE FORCE                       247.       TIME AVG. FORCE        247.    
 LARGEST SCALED RESIDUAL FORCE     -2.180E-03   AT NODE         97   DOF  1
   INSTANCE: ELG Specimen 2024-1                                                             
  CORRESPONDING RESIDUAL FORCE     -2.180E-03
 LARGEST INCREMENT OF DISP.         1.169E-05   AT NODE        102   DOF  2
   INSTANCE: ELG Specimen 2024-1                                                             
 LARGEST CORRECTION TO DISP.        1.805E-07   AT NODE        106   DOF  2
   INSTANCE: ELG Specimen 2024-1                                                             
 ESTIMATE OF DISP.    CORRECTION    8.640E-08
 FORCE     EQUILIB. ACCEPTED BASED ON SMALL RESIDUAL AND ESTIMATED CORRECTION

 AVERAGE MOMENT                      0.00       TIME AVG. MOMENT       115.    
                                                (FROM FORCE     FIELD)
 ALL MOMENT    RESIDUALS ARE ZERO
 LARGEST INCREMENT OF ROTATION     -1.411E-32   AT NODE          1   DOF  6
   INSTANCE: {assembly node}                                                                 
 LARGEST CORRECTION TO ROTATION    -1.067E-41   AT NODE          1   DOF  6
   INSTANCE: {assembly node}                                                                 
          THERE IS ZERO MOMENT    EVERYWHERE

 MAXIMUM DIFFERENCE IN CREEP STRAIN INCREMENT IS   4.740E-15

 ITERATION SUMMARY FOR THE INCREMENT:   6 TOTAL ITERATIONS, OF WHICH
   0 ARE SEVERE DISCONTINUITY ITERATIONS AND  6 ARE EQUILIBRIUM ITERATIONS.

 TIME INCREMENT COMPLETED  1.000E-06,  FRACTION OF STEP COMPLETED  5.000E-09
 STEP TIME COMPLETED       1.000E-06,  TOTAL TIME COMPLETED        0.200    


  INCREMENT     2 STARTS. ATTEMPT NUMBER  1, TIME INCREMENT  1.000E-06
 
	SYMMETRIC NEW DIRECT SPARSE SOLVER RUNNING ON
 	1 HOST x 1 MPI RANK PER HOST x 1 THREAD PER RANK
        NUMBER OF EQUATIONS:  3023
        NUMBER OF RHS:        1
        NUMBER OF FLOPS:      3.852e+06
        SOLVER ELAPSED TIME:  6ms

               CONVERGENCE CHECKS FOR EQUILIBRIUM ITERATION     1


 AVERAGE FORCE                       247.       TIME AVG. FORCE        247.    
 LARGEST SCALED RESIDUAL FORCE     -3.177E-03   AT NODE        352   DOF  1
   INSTANCE: ELG Specimen 2024-1                                                             
  CORRESPONDING RESIDUAL FORCE     -3.177E-03
 LARGEST INCREMENT OF DISP.         7.469E-08   AT NODE        105   DOF  2
   INSTANCE: ELG Specimen 2024-1                                                             
 LARGEST CORRECTION TO DISP.       -1.162E-05   AT NODE        102   DOF  2
   INSTANCE: ELG Specimen 2024-1                                                             
          DISP.    CORRECTION TOO LARGE COMPARED TO DISP.    INCREMENT

 AVERAGE MOMENT                      0.00       TIME AVG. MOMENT       115.    
                                                (FROM FORCE     FIELD)
 ALL MOMENT    RESIDUALS ARE ZERO
 LARGEST INCREMENT OF ROTATION     -1.411E-32   AT NODE          1   DOF  6
   INSTANCE: {assembly node}                                                                 
 LARGEST CORRECTION TO ROTATION    -1.047E-40   AT NODE          1   DOF  6
   INSTANCE: {assembly node}                                                                 
          THERE IS ZERO MOMENT    EVERYWHERE
 
	SYMMETRIC NEW DIRECT SPARSE SOLVER RUNNING ON
 	1 HOST x 1 MPI RANK PER HOST x 1 THREAD PER RANK
        NUMBER OF EQUATIONS:  3023
        NUMBER OF RHS:        1
        NUMBER OF FLOPS:      3.852e+06
        SOLVER ELAPSED TIME:  6ms

               CONVERGENCE CHECKS FOR EQUILIBRIUM ITERATION     2


 AVERAGE FORCE                       247.       TIME AVG. FORCE        247.    
 LARGEST SCALED RESIDUAL FORCE     -8.534E-04   AT NODE        960   DOF  2
   INSTANCE: ELG Specimen 2024-1                                                             
  CORRESPONDING RESIDUAL FORCE     -8.534E-04
 LARGEST INCREMENT OF DISP.         8.041E-08   AT NODE        105   DOF  2
   INSTANCE: ELG Specimen 2024-1                                                             
 LARGEST CORRECTION TO DISP.        2.453E-08   AT NODE        328   DOF  2
   INSTANCE: ELG Specimen 2024-1                                                             
          DISP.    CORRECTION TOO LARGE COMPARED TO DISP.    INCREMENT

 AVERAGE MOMENT                      0.00       TIME AVG. MOMENT       115.    
                                                (FROM FORCE     FIELD)
 ALL MOMENT    RESIDUALS ARE ZERO
 LARGEST INCREMENT OF ROTATION     -1.411E-32   AT NODE          1   DOF  6
   INSTANCE: {assembly node}                                                                 
 LARGEST CORRECTION TO ROTATION     1.183E-40   AT NODE          1   DOF  6
   INSTANCE: {assembly node}                                                                 
          THERE IS ZERO MOMENT    EVERYWHERE
 
	SYMMETRIC NEW DIRECT SPARSE SOLVER RUNNING ON
 	1 HOST x 1 MPI RANK PER HOST x 1 THREAD PER RANK
        NUMBER OF EQUATIONS:  3023
        NUMBER OF RHS:        1
        NUMBER OF FLOPS:      3.852e+06
        SOLVER ELAPSED TIME:  7ms

               CONVERGENCE CHECKS FOR EQUILIBRIUM ITERATION     3


 AVERAGE FORCE                       247.       TIME AVG. FORCE        247.    
 LARGEST SCALED RESIDUAL FORCE      6.507E-04   AT NODE       1400   DOF  2
   INSTANCE: ELG Specimen 2024-1                                                             
  CORRESPONDING RESIDUAL FORCE      6.507E-04
 LARGEST INCREMENT OF DISP.         7.187E-08   AT NODE        105   DOF  2
   INSTANCE: ELG Specimen 2024-1                                                             
 LARGEST CORRECTION TO DISP.       -8.716E-09   AT NODE        110   DOF  2
   INSTANCE: ELG Specimen 2024-1                                                             
          DISP.    CORRECTION TOO LARGE COMPARED TO DISP.    INCREMENT

 AVERAGE MOMENT                      0.00       TIME AVG. MOMENT       115.    
                                                (FROM FORCE     FIELD)
 ALL MOMENT    RESIDUALS ARE ZERO
 LARGEST INCREMENT OF ROTATION     -1.411E-32   AT NODE          1   DOF  6
   INSTANCE: {assembly node}                                                                 
 LARGEST CORRECTION TO ROTATION     2.551E-43   AT NODE          1   DOF  6
   INSTANCE: {assembly node}                                                                 
          THERE IS ZERO MOMENT    EVERYWHERE
 
	SYMMETRIC NEW DIRECT SPARSE SOLVER RUNNING ON
 	1 HOST x 1 MPI RANK PER HOST x 1 THREAD PER RANK
        NUMBER OF EQUATIONS:  3023
        NUMBER OF RHS:        1
        NUMBER OF FLOPS:      3.852e+06
        SOLVER ELAPSED TIME:  6ms

               CONVERGENCE CHECKS FOR EQUILIBRIUM ITERATION     4


 AVERAGE FORCE                       247.       TIME AVG. FORCE        247.    
 LARGEST SCALED RESIDUAL FORCE      6.962E-04   AT NODE       1408   DOF  2
   INSTANCE: ELG Specimen 2024-1                                                             
  CORRESPONDING RESIDUAL FORCE      6.962E-04
 LARGEST INCREMENT OF DISP.         6.554E-08   AT NODE        105   DOF  2
   INSTANCE: ELG Specimen 2024-1                                                             
 LARGEST CORRECTION TO DISP.       -6.469E-09   AT NODE        108   DOF  2
   INSTANCE: ELG Specimen 2024-1                                                             
          DISP.    CORRECTION TOO LARGE COMPARED TO DISP.    INCREMENT

 AVERAGE MOMENT                      0.00       TIME AVG. MOMENT       115.    
                                                (FROM FORCE     FIELD)
 ALL MOMENT    RESIDUALS ARE ZERO
 LARGEST INCREMENT OF ROTATION     -1.411E-32   AT NODE          1   DOF  6
   INSTANCE: {assembly node}                                                                 
 LARGEST CORRECTION TO ROTATION     3.325E-43   AT NODE          1   DOF  6
   INSTANCE: {assembly node}                                                                 
          THERE IS ZERO MOMENT    EVERYWHERE
 
	SYMMETRIC NEW DIRECT SPARSE SOLVER RUNNING ON
 	1 HOST x 1 MPI RANK PER HOST x 1 THREAD PER RANK
        NUMBER OF EQUATIONS:  3023
        NUMBER OF RHS:        1
        NUMBER OF FLOPS:      3.852e+06
        SOLVER ELAPSED TIME:  6ms

               CONVERGENCE CHECKS FOR EQUILIBRIUM ITERATION     5


 AVERAGE FORCE                       247.       TIME AVG. FORCE        247.    
 LARGEST SCALED RESIDUAL FORCE     -7.943E-04   AT NODE       1320   DOF  2
   INSTANCE: ELG Specimen 2024-1                                                             
  CORRESPONDING RESIDUAL FORCE     -7.943E-04
 LARGEST INCREMENT OF DISP.         6.082E-08   AT NODE        105   DOF  2
   INSTANCE: ELG Specimen 2024-1                                                             
 LARGEST CORRECTION TO DISP.       -4.782E-09   AT NODE        109   DOF  2
   INSTANCE: ELG Specimen 2024-1                                                             
          DISP.    CORRECTION TOO LARGE COMPARED TO DISP.    INCREMENT

 AVERAGE MOMENT                      0.00       TIME AVG. MOMENT       115.    
                                                (FROM FORCE     FIELD)
 ALL MOMENT    RESIDUALS ARE ZERO
 LARGEST INCREMENT OF ROTATION     -1.411E-32   AT NODE          1   DOF  6
   INSTANCE: {assembly node}                                                                 
 LARGEST CORRECTION TO ROTATION     3.825E-44   AT NODE          1   DOF  6
   INSTANCE: {assembly node}                                                                 
          THERE IS ZERO MOMENT    EVERYWHERE
 

 ***NOTE: THE SOLUTION APPEARS TO BE DIVERGING. CONVERGENCE IS JUDGED UNLIKELY.


  INCREMENT     2 STARTS. ATTEMPT NUMBER  2, TIME INCREMENT  2.500E-07
 
	SYMMETRIC NEW DIRECT SPARSE SOLVER RUNNING ON
 	1 HOST x 1 MPI RANK PER HOST x 1 THREAD PER RANK
        NUMBER OF EQUATIONS:  3023
        NUMBER OF RHS:        1
        NUMBER OF FLOPS:      3.852e+06
        SOLVER ELAPSED TIME:  7ms

               CONVERGENCE CHECKS FOR EQUILIBRIUM ITERATION     1


 AVERAGE FORCE                       247.       TIME AVG. FORCE        247.    
 LARGEST SCALED RESIDUAL FORCE      2.011E-03   AT NODE        608   DOF  1
   INSTANCE: ELG Specimen 2024-1                                                             
  CORRESPONDING RESIDUAL FORCE      2.011E-03
 LARGEST INCREMENT OF DISP.         3.058E-08   AT NODE        105   DOF  2
   INSTANCE: ELG Specimen 2024-1                                                             
 LARGEST CORRECTION TO DISP.       -2.892E-06   AT NODE        102   DOF  2
   INSTANCE: ELG Specimen 2024-1                                                             
          DISP.    CORRECTION TOO LARGE COMPARED TO DISP.    INCREMENT

 AVERAGE MOMENT                      0.00       TIME AVG. MOMENT       115.    
                                                (FROM FORCE     FIELD)
 ALL MOMENT    RESIDUALS ARE ZERO
 LARGEST INCREMENT OF ROTATION     -1.411E-32   AT NODE          1   DOF  6
   INSTANCE: {assembly node}                                                                 
 LARGEST CORRECTION TO ROTATION    -1.058E-32   AT NODE          1   DOF  6
   INSTANCE: {assembly node}                                                                 
          THERE IS ZERO MOMENT    EVERYWHERE
 
	SYMMETRIC NEW DIRECT SPARSE SOLVER RUNNING ON
 	1 HOST x 1 MPI RANK PER HOST x 1 THREAD PER RANK
        NUMBER OF EQUATIONS:  3023
        NUMBER OF RHS:        1
        NUMBER OF FLOPS:      3.852e+06
        SOLVER ELAPSED TIME:  6ms

               CONVERGENCE CHECKS FOR EQUILIBRIUM ITERATION     2


 AVERAGE FORCE                       247.       TIME AVG. FORCE        247.    
 LARGEST SCALED RESIDUAL FORCE      5.243E-04   AT NODE       1335   DOF  2
   INSTANCE: ELG Specimen 2024-1                                                             
  CORRESPONDING RESIDUAL FORCE      5.243E-04
 LARGEST INCREMENT OF DISP.         4.337E-08   AT NODE         98   DOF  2
   INSTANCE: ELG Specimen 2024-1                                                             
 LARGEST CORRECTION TO DISP.        2.180E-08   AT NODE        281   DOF  2
   INSTANCE: ELG Specimen 2024-1                                                             
          DISP.    CORRECTION TOO LARGE COMPARED TO DISP.    INCREMENT

 AVERAGE MOMENT                      0.00       TIME AVG. MOMENT       115.    
                                                (FROM FORCE     FIELD)
 ALL MOMENT    RESIDUALS ARE ZERO
 LARGEST INCREMENT OF ROTATION     -1.411E-32   AT NODE          1   DOF  6
   INSTANCE: {assembly node}                                                                 
 LARGEST CORRECTION TO ROTATION     3.140E-41   AT NODE          1   DOF  6
   INSTANCE: {assembly node}                                                                 
          THERE IS ZERO MOMENT    EVERYWHERE
 
	SYMMETRIC NEW DIRECT SPARSE SOLVER RUNNING ON
 	1 HOST x 1 MPI RANK PER HOST x 1 THREAD PER RANK
        NUMBER OF EQUATIONS:  3023
        NUMBER OF RHS:        1
        NUMBER OF FLOPS:      3.852e+06
        SOLVER ELAPSED TIME:  9ms

               CONVERGENCE CHECKS FOR EQUILIBRIUM ITERATION     3


 AVERAGE FORCE                       247.       TIME AVG. FORCE        247.    
 LARGEST SCALED RESIDUAL FORCE      7.383E-04   AT NODE        247   DOF  1
   INSTANCE: ELG Specimen 2024-1                                                             
  CORRESPONDING RESIDUAL FORCE      7.383E-04
 LARGEST INCREMENT OF DISP.         4.079E-08   AT NODE         98   DOF  2
   INSTANCE: ELG Specimen 2024-1                                                             
 LARGEST CORRECTION TO DISP.       -2.685E-09   AT NODE        589   DOF  2
   INSTANCE: ELG Specimen 2024-1                                                             
          DISP.    CORRECTION TOO LARGE COMPARED TO DISP.    INCREMENT

 AVERAGE MOMENT                      0.00       TIME AVG. MOMENT       115.    
                                                (FROM FORCE     FIELD)
 ALL MOMENT    RESIDUALS ARE ZERO
 LARGEST INCREMENT OF ROTATION     -1.411E-32   AT NODE          1   DOF  6
   INSTANCE: {assembly node}                                                                 
 LARGEST CORRECTION TO ROTATION    -1.898E-42   AT NODE          1   DOF  6
   INSTANCE: {assembly node}                                                                 
          THERE IS ZERO MOMENT    EVERYWHERE
 
	SYMMETRIC NEW DIRECT SPARSE SOLVER RUNNING ON
 	1 HOST x 1 MPI RANK PER HOST x 1 THREAD PER RANK
        NUMBER OF EQUATIONS:  3023
        NUMBER OF RHS:        1
        NUMBER OF FLOPS:      3.852e+06
        SOLVER ELAPSED TIME:  5ms

               CONVERGENCE CHECKS FOR EQUILIBRIUM ITERATION     4


 AVERAGE FORCE                       247.       TIME AVG. FORCE        247.    
 LARGEST SCALED RESIDUAL FORCE      7.228E-04   AT NODE       1287   DOF  2
   INSTANCE: ELG Specimen 2024-1                                                             
  CORRESPONDING RESIDUAL FORCE      7.228E-04
 LARGEST INCREMENT OF DISP.         3.906E-08   AT NODE        281   DOF  2
   INSTANCE: ELG Specimen 2024-1                                                             
 LARGEST CORRECTION TO DISP.       -2.258E-09   AT NODE        279   DOF  2
   INSTANCE: ELG Specimen 2024-1                                                             
          DISP.    CORRECTION TOO LARGE COMPARED TO DISP.    INCREMENT

 AVERAGE MOMENT                      0.00       TIME AVG. MOMENT       115.    
                                                (FROM FORCE     FIELD)
 ALL MOMENT    RESIDUALS ARE ZERO
 LARGEST INCREMENT OF ROTATION     -1.411E-32   AT NODE          1   DOF  6
   INSTANCE: {assembly node}                                                                 
 LARGEST CORRECTION TO ROTATION     7.799E-44   AT NODE          1   DOF  6
   INSTANCE: {assembly node}                                                                 
          THERE IS ZERO MOMENT    EVERYWHERE
 
	SYMMETRIC NEW DIRECT SPARSE SOLVER RUNNING ON
 	1 HOST x 1 MPI RANK PER HOST x 1 THREAD PER RANK
        NUMBER OF EQUATIONS:  3023
        NUMBER OF RHS:        1
        NUMBER OF FLOPS:      3.852e+06
        SOLVER ELAPSED TIME:  5ms

               CONVERGENCE CHECKS FOR EQUILIBRIUM ITERATION     5


 AVERAGE FORCE                       247.       TIME AVG. FORCE        247.    
 LARGEST SCALED RESIDUAL FORCE      8.264E-04   AT NODE       1280   DOF  2
   INSTANCE: ELG Specimen 2024-1                                                             
  CORRESPONDING RESIDUAL FORCE      8.264E-04
 LARGEST INCREMENT OF DISP.         3.835E-08   AT NODE        281   DOF  2
   INSTANCE: ELG Specimen 2024-1                                                             
 LARGEST CORRECTION TO DISP.        1.094E-09   AT NODE       1054   DOF  2
   INSTANCE: ELG Specimen 2024-1                                                             
          DISP.    CORRECTION TOO LARGE COMPARED TO DISP.    INCREMENT

 AVERAGE MOMENT                      0.00       TIME AVG. MOMENT       115.    
                                                (FROM FORCE     FIELD)
 ALL MOMENT    RESIDUALS ARE ZERO
 LARGEST INCREMENT OF ROTATION     -1.411E-32   AT NODE          1   DOF  6
   INSTANCE: {assembly node}                                                                 
 LARGEST CORRECTION TO ROTATION    -5.341E-43   AT NODE          1   DOF  6
   INSTANCE: {assembly node}                                                                 
          THERE IS ZERO MOMENT    EVERYWHERE
 

 ***NOTE: THE SOLUTION APPEARS TO BE DIVERGING. CONVERGENCE IS JUDGED UNLIKELY.


  INCREMENT     2 STARTS. ATTEMPT NUMBER  3, TIME INCREMENT  6.250E-08
 
	SYMMETRIC NEW DIRECT SPARSE SOLVER RUNNING ON
 	1 HOST x 1 MPI RANK PER HOST x 1 THREAD PER RANK
        NUMBER OF EQUATIONS:  3023
        NUMBER OF RHS:        1
        NUMBER OF FLOPS:      3.852e+06
        SOLVER ELAPSED TIME:  5ms

               CONVERGENCE CHECKS FOR EQUILIBRIUM ITERATION     1


 AVERAGE FORCE                       247.       TIME AVG. FORCE        247.    
 LARGEST SCALED RESIDUAL FORCE     -1.259E-03   AT NODE         97   DOF  1
   INSTANCE: ELG Specimen 2024-1                                                             
  CORRESPONDING RESIDUAL FORCE     -1.259E-03
 LARGEST INCREMENT OF DISP.         3.655E-09   AT NODE        281   DOF  2
   INSTANCE: ELG Specimen 2024-1                                                             
 LARGEST CORRECTION TO DISP.        3.655E-09   AT NODE        281   DOF  2
   INSTANCE: ELG Specimen 2024-1                                                             
          FORCE     EQUILIB. ACCEPTED BASED ON SMALL RESIDUAL AND SMALL MAGNITUDE
           OF THE INCREMENT OF DISPLACEMENT

 AVERAGE MOMENT                      0.00       TIME AVG. MOMENT       115.    
                                                (FROM FORCE     FIELD)
 ALL MOMENT    RESIDUALS ARE ZERO
 LARGEST INCREMENT OF ROTATION     -1.411E-32   AT NODE          1   DOF  6
   INSTANCE: {assembly node}                                                                 
 LARGEST CORRECTION TO ROTATION    -1.411E-32   AT NODE          1   DOF  6
   INSTANCE: {assembly node}                                                                 
          THERE IS ZERO MOMENT    EVERYWHERE

 MAXIMUM DIFFERENCE IN CREEP STRAIN INCREMENT IS   1.659E-17

 ITERATION SUMMARY FOR THE INCREMENT:   1 TOTAL ITERATIONS, OF WHICH
   0 ARE SEVERE DISCONTINUITY ITERATIONS AND  1 ARE EQUILIBRIUM ITERATIONS.

 TIME INCREMENT COMPLETED  6.250E-08,  FRACTION OF STEP COMPLETED  5.312E-09
 STEP TIME COMPLETED       1.062E-06,  TOTAL TIME COMPLETED        0.200    


  INCREMENT     3 STARTS. ATTEMPT NUMBER  1, TIME INCREMENT  6.250E-08
 
	SYMMETRIC NEW DIRECT SPARSE SOLVER RUNNING ON
 	1 HOST x 1 MPI RANK PER HOST x 1 THREAD PER RANK
        NUMBER OF EQUATIONS:  3023
        NUMBER OF RHS:        1
        NUMBER OF FLOPS:      3.852e+06
        SOLVER ELAPSED TIME:  6ms

               CONVERGENCE CHECKS FOR EQUILIBRIUM ITERATION     1


 AVERAGE FORCE                       247.       TIME AVG. FORCE        247.    
 LARGEST SCALED RESIDUAL FORCE     -8.870E-04   AT NODE       1047   DOF  1
   INSTANCE: ELG Specimen 2024-1                                                             
  CORRESPONDING RESIDUAL FORCE     -8.870E-04
 LARGEST INCREMENT OF DISP.         5.603E-09   AT NODE        281   DOF  2
   INSTANCE: ELG Specimen 2024-1                                                             
 LARGEST CORRECTION TO DISP.       -2.338E-09   AT NODE        319   DOF  2
   INSTANCE: ELG Specimen 2024-1                                                             
          DISP.    CORRECTION TOO LARGE COMPARED TO DISP.    INCREMENT

 AVERAGE MOMENT                      0.00       TIME AVG. MOMENT       115.    
                                                (FROM FORCE     FIELD)
 ALL MOMENT    RESIDUALS ARE ZERO
 LARGEST INCREMENT OF ROTATION     -1.411E-32   AT NODE          1   DOF  6
   INSTANCE: {assembly node}                                                                 
 LARGEST CORRECTION TO ROTATION    -2.110E-42   AT NODE          1   DOF  6
   INSTANCE: {assembly node}                                                                 
          THERE IS ZERO MOMENT    EVERYWHERE
 
	SYMMETRIC NEW DIRECT SPARSE SOLVER RUNNING ON
 	1 HOST x 1 MPI RANK PER HOST x 1 THREAD PER RANK
        NUMBER OF EQUATIONS:  3023
        NUMBER OF RHS:        1
        NUMBER OF FLOPS:      3.852e+06
        SOLVER ELAPSED TIME:  8ms

               CONVERGENCE CHECKS FOR EQUILIBRIUM ITERATION     2


 AVERAGE FORCE                       247.       TIME AVG. FORCE        247.    
 LARGEST SCALED RESIDUAL FORCE      1.035E-06   AT NODE       1038   DOF  2
   INSTANCE: ELG Specimen 2024-1                                                             
  CORRESPONDING RESIDUAL FORCE      1.035E-06
 LARGEST INCREMENT OF DISP.         8.180E-09   AT NODE        281   DOF  2
   INSTANCE: ELG Specimen 2024-1                                                             
 LARGEST CORRECTION TO DISP.        3.147E-09   AT NODE       1055   DOF  2
   INSTANCE: ELG Specimen 2024-1                                                             
          THE FORCE     EQUILIBRIUM EQUATIONS HAVE CONVERGED

 AVERAGE MOMENT                      0.00       TIME AVG. MOMENT       115.    
                                                (FROM FORCE     FIELD)
 ALL MOMENT    RESIDUALS ARE ZERO
 LARGEST INCREMENT OF ROTATION     -1.411E-32   AT NODE          1   DOF  6
   INSTANCE: {assembly node}                                                                 
 LARGEST CORRECTION TO ROTATION    -6.547E-43   AT NODE          1   DOF  6
   INSTANCE: {assembly node}                                                                 
          THERE IS ZERO MOMENT    EVERYWHERE

 MAXIMUM DIFFERENCE IN CREEP STRAIN INCREMENT IS   2.935E-17
          TIME INCREMENT MAY NOW INCREASE TO    9.375E-08

 ITERATION SUMMARY FOR THE INCREMENT:   2 TOTAL ITERATIONS, OF WHICH
   0 ARE SEVERE DISCONTINUITY ITERATIONS AND  2 ARE EQUILIBRIUM ITERATIONS.

 TIME INCREMENT COMPLETED  6.250E-08,  FRACTION OF STEP COMPLETED  5.625E-09
 STEP TIME COMPLETED       1.125E-06,  TOTAL TIME COMPLETED        0.200    


  INCREMENT     4 STARTS. ATTEMPT NUMBER  1, TIME INCREMENT  9.375E-08
 
	SYMMETRIC NEW DIRECT SPARSE SOLVER RUNNING ON
 	1 HOST x 1 MPI RANK PER HOST x 1 THREAD PER RANK
        NUMBER OF EQUATIONS:  3023
        NUMBER OF RHS:        1
        NUMBER OF FLOPS:      3.852e+06
        SOLVER ELAPSED TIME:  7ms

               CONVERGENCE CHECKS FOR EQUILIBRIUM ITERATION     1


 AVERAGE FORCE                       247.       TIME AVG. FORCE        247.    
 LARGEST SCALED RESIDUAL FORCE     -5.648E-04   AT NODE       1055   DOF  2
   INSTANCE: ELG Specimen 2024-1                                                             
  CORRESPONDING RESIDUAL FORCE     -5.648E-04
 LARGEST INCREMENT OF DISP.         4.253E-09   AT NODE        623   DOF  2
   INSTANCE: ELG Specimen 2024-1                                                             
 LARGEST CORRECTION TO DISP.       -8.948E-09   AT NODE        281   DOF  2
   INSTANCE: ELG Specimen 2024-1                                                             
          FORCE     EQUILIB. ACCEPTED BASED ON SMALL RESIDUAL AND SMALL MAGNITUDE
           OF THE INCREMENT OF DISPLACEMENT

 AVERAGE MOMENT                      0.00       TIME AVG. MOMENT       115.    
                                                (FROM FORCE     FIELD)
 ALL MOMENT    RESIDUALS ARE ZERO
 LARGEST INCREMENT OF ROTATION     -1.411E-32   AT NODE          1   DOF  6
   INSTANCE: {assembly node}                                                                 
 LARGEST CORRECTION TO ROTATION     7.055E-33   AT NODE          1   DOF  6
   INSTANCE: {assembly node}                                                                 
          THERE IS ZERO MOMENT    EVERYWHERE

 MAXIMUM DIFFERENCE IN CREEP STRAIN INCREMENT IS   2.587E-17
          TIME INCREMENT MAY NOW INCREASE TO    1.875E-07

 ITERATION SUMMARY FOR THE INCREMENT:   1 TOTAL ITERATIONS, OF WHICH
   0 ARE SEVERE DISCONTINUITY ITERATIONS AND  1 ARE EQUILIBRIUM ITERATIONS.

 TIME INCREMENT COMPLETED  9.375E-08,  FRACTION OF STEP COMPLETED  6.094E-09
 STEP TIME COMPLETED       1.219E-06,  TOTAL TIME COMPLETED        0.200    


  INCREMENT     5 STARTS. ATTEMPT NUMBER  1, TIME INCREMENT  1.875E-07
 
	SYMMETRIC NEW DIRECT SPARSE SOLVER RUNNING ON
 	1 HOST x 1 MPI RANK PER HOST x 1 THREAD PER RANK
        NUMBER OF EQUATIONS:  3023
        NUMBER OF RHS:        1
        NUMBER OF FLOPS:      3.852e+06
        SOLVER ELAPSED TIME:  8ms

               CONVERGENCE CHECKS FOR EQUILIBRIUM ITERATION     1


 AVERAGE FORCE                       247.       TIME AVG. FORCE        247.    
 LARGEST SCALED RESIDUAL FORCE      5.698E-04   AT NODE       1047   DOF  2
   INSTANCE: ELG Specimen 2024-1                                                             
  CORRESPONDING RESIDUAL FORCE      5.698E-04
 LARGEST INCREMENT OF DISP.         2.056E-09   AT NODE        637   DOF  2
   INSTANCE: ELG Specimen 2024-1                                                             
 LARGEST CORRECTION TO DISP.       -6.574E-09   AT NODE        623   DOF  2
   INSTANCE: ELG Specimen 2024-1                                                             
          FORCE     EQUILIB. ACCEPTED BASED ON SMALL RESIDUAL AND SMALL MAGNITUDE
           OF THE INCREMENT OF DISPLACEMENT

 AVERAGE MOMENT                      0.00       TIME AVG. MOMENT       115.    
                                                (FROM FORCE     FIELD)
 ALL MOMENT    RESIDUALS ARE ZERO
 LARGEST INCREMENT OF ROTATION     -1.411E-32   AT NODE          1   DOF  6
   INSTANCE: {assembly node}                                                                 
 LARGEST CORRECTION TO ROTATION     1.411E-32   AT NODE          1   DOF  6
   INSTANCE: {assembly node}                                                                 
          THERE IS ZERO MOMENT    EVERYWHERE

 MAXIMUM DIFFERENCE IN CREEP STRAIN INCREMENT IS   4.403E-17
          TIME INCREMENT MAY NOW INCREASE TO    3.750E-07

 ITERATION SUMMARY FOR THE INCREMENT:   1 TOTAL ITERATIONS, OF WHICH
   0 ARE SEVERE DISCONTINUITY ITERATIONS AND  1 ARE EQUILIBRIUM ITERATIONS.

 TIME INCREMENT COMPLETED  1.875E-07,  FRACTION OF STEP COMPLETED  7.031E-09
 STEP TIME COMPLETED       1.406E-06,  TOTAL TIME COMPLETED        0.200    


  INCREMENT     6 STARTS. ATTEMPT NUMBER  1, TIME INCREMENT  3.750E-07
 
	SYMMETRIC NEW DIRECT SPARSE SOLVER RUNNING ON
 	1 HOST x 1 MPI RANK PER HOST x 1 THREAD PER RANK
        NUMBER OF EQUATIONS:  3023
        NUMBER OF RHS:        1
        NUMBER OF FLOPS:      3.852e+06
        SOLVER ELAPSED TIME:  6ms

               CONVERGENCE CHECKS FOR EQUILIBRIUM ITERATION     1


 AVERAGE FORCE                       247.       TIME AVG. FORCE        247.    
 LARGEST SCALED RESIDUAL FORCE      4.016E-04   AT NODE        590   DOF  1
   INSTANCE: ELG Specimen 2024-1                                                             
  CORRESPONDING RESIDUAL FORCE      4.016E-04
 LARGEST INCREMENT OF DISP.         5.674E-10   AT NODE       1020   DOF  2
   INSTANCE: ELG Specimen 2024-1                                                             
 LARGEST CORRECTION TO DISP.       -3.737E-09   AT NODE        637   DOF  2
   INSTANCE: ELG Specimen 2024-1                                                             
          FORCE     EQUILIB. ACCEPTED BASED ON SMALL RESIDUAL AND SMALL MAGNITUDE
           OF THE INCREMENT OF DISPLACEMENT

 AVERAGE MOMENT                      0.00       TIME AVG. MOMENT       115.    
                                                (FROM FORCE     FIELD)
 ALL MOMENT    RESIDUALS ARE ZERO
 LARGEST INCREMENT OF ROTATION     -1.411E-32   AT NODE          1   DOF  6
   INSTANCE: {assembly node}                                                                 
 LARGEST CORRECTION TO ROTATION     1.411E-32   AT NODE          1   DOF  6
   INSTANCE: {assembly node}                                                                 
          THERE IS ZERO MOMENT    EVERYWHERE

 MAXIMUM DIFFERENCE IN CREEP STRAIN INCREMENT IS   6.251E-17
          TIME INCREMENT MAY NOW INCREASE TO    7.500E-07

 ITERATION SUMMARY FOR THE INCREMENT:   1 TOTAL ITERATIONS, OF WHICH
   0 ARE SEVERE DISCONTINUITY ITERATIONS AND  1 ARE EQUILIBRIUM ITERATIONS.

 TIME INCREMENT COMPLETED  3.750E-07,  FRACTION OF STEP COMPLETED  8.906E-09
 STEP TIME COMPLETED       1.781E-06,  TOTAL TIME COMPLETED        0.200    


  INCREMENT     7 STARTS. ATTEMPT NUMBER  1, TIME INCREMENT  7.500E-07
 
	SYMMETRIC NEW DIRECT SPARSE SOLVER RUNNING ON
 	1 HOST x 1 MPI RANK PER HOST x 1 THREAD PER RANK
        NUMBER OF EQUATIONS:  3023
        NUMBER OF RHS:        1
        NUMBER OF FLOPS:      3.852e+06
        SOLVER ELAPSED TIME:  5ms

               CONVERGENCE CHECKS FOR EQUILIBRIUM ITERATION     1


 AVERAGE FORCE                       247.       TIME AVG. FORCE        247.    
 LARGEST SCALED RESIDUAL FORCE     -7.684E-07   AT NODE       1055   DOF  2
   INSTANCE: ELG Specimen 2024-1                                                             
  CORRESPONDING RESIDUAL FORCE     -7.684E-07
 LARGEST INCREMENT OF DISP.         1.331E-09   AT NODE         92   DOF  2
   INSTANCE: ELG Specimen 2024-1                                                             
 LARGEST CORRECTION TO DISP.       -1.143E-09   AT NODE        316   DOF  2
   INSTANCE: ELG Specimen 2024-1                                                             
          THE FORCE     EQUILIBRIUM RESPONSE WAS LINEAR IN THIS INCREMENT

 AVERAGE MOMENT                      0.00       TIME AVG. MOMENT       115.    
                                                (FROM FORCE     FIELD)
 ALL MOMENT    RESIDUALS ARE ZERO
 LARGEST INCREMENT OF ROTATION     -1.411E-32   AT NODE          1   DOF  6
   INSTANCE: {assembly node}                                                                 
 LARGEST CORRECTION TO ROTATION     1.411E-32   AT NODE          1   DOF  6
   INSTANCE: {assembly node}                                                                 
          THERE IS ZERO MOMENT    EVERYWHERE

 MAXIMUM DIFFERENCE IN CREEP STRAIN INCREMENT IS   1.073E-16
          TIME INCREMENT MAY NOW INCREASE TO    1.500E-06

 ITERATION SUMMARY FOR THE INCREMENT:   1 TOTAL ITERATIONS, OF WHICH
   0 ARE SEVERE DISCONTINUITY ITERATIONS AND  1 ARE EQUILIBRIUM ITERATIONS.

 TIME INCREMENT COMPLETED  7.500E-07,  FRACTION OF STEP COMPLETED  1.266E-08
 STEP TIME COMPLETED       2.531E-06,  TOTAL TIME COMPLETED        0.200    


  INCREMENT     8 STARTS. ATTEMPT NUMBER  1, TIME INCREMENT  1.500E-06
 
	SYMMETRIC NEW DIRECT SPARSE SOLVER RUNNING ON
 	1 HOST x 1 MPI RANK PER HOST x 1 THREAD PER RANK
        NUMBER OF EQUATIONS:  3023
        NUMBER OF RHS:        1
        NUMBER OF FLOPS:      3.852e+06
        SOLVER ELAPSED TIME:  8ms

               CONVERGENCE CHECKS FOR EQUILIBRIUM ITERATION     1


 AVERAGE FORCE                       247.       TIME AVG. FORCE        247.    
 LARGEST SCALED RESIDUAL FORCE     -7.619E-07   AT NODE       1037   DOF  2
   INSTANCE: ELG Specimen 2024-1                                                             
  CORRESPONDING RESIDUAL FORCE     -7.619E-07
 LARGEST INCREMENT OF DISP.         3.692E-09   AT NODE          1   DOF  2
   INSTANCE: {assembly node}                                                                 
 LARGEST CORRECTION TO DISP.        1.873E-09   AT NODE        620   DOF  2
   INSTANCE: ELG Specimen 2024-1                                                             
          THE FORCE     EQUILIBRIUM RESPONSE WAS LINEAR IN THIS INCREMENT

 AVERAGE MOMENT                      0.00       TIME AVG. MOMENT       115.    
                                                (FROM FORCE     FIELD)
 ALL MOMENT    RESIDUALS ARE ZERO
 LARGEST INCREMENT OF ROTATION     -1.411E-32   AT NODE          1   DOF  6
   INSTANCE: {assembly node}                                                                 
 LARGEST CORRECTION TO ROTATION     1.411E-32   AT NODE          1   DOF  6
   INSTANCE: {assembly node}                                                                 
          THERE IS ZERO MOMENT    EVERYWHERE

 MAXIMUM DIFFERENCE IN CREEP STRAIN INCREMENT IS   1.045E-18
          TIME INCREMENT MAY NOW INCREASE TO    3.000E-06

 ITERATION SUMMARY FOR THE INCREMENT:   1 TOTAL ITERATIONS, OF WHICH
   0 ARE SEVERE DISCONTINUITY ITERATIONS AND  1 ARE EQUILIBRIUM ITERATIONS.

 TIME INCREMENT COMPLETED  1.500E-06,  FRACTION OF STEP COMPLETED  2.016E-08
 STEP TIME COMPLETED       4.031E-06,  TOTAL TIME COMPLETED        0.200    


  INCREMENT     9 STARTS. ATTEMPT NUMBER  1, TIME INCREMENT  3.000E-06
 
	SYMMETRIC NEW DIRECT SPARSE SOLVER RUNNING ON
 	1 HOST x 1 MPI RANK PER HOST x 1 THREAD PER RANK
        NUMBER OF EQUATIONS:  3023
        NUMBER OF RHS:        1
        NUMBER OF FLOPS:      3.852e+06
        SOLVER ELAPSED TIME:  6ms

               CONVERGENCE CHECKS FOR EQUILIBRIUM ITERATION     1


 AVERAGE FORCE                       247.       TIME AVG. FORCE        247.    
 LARGEST SCALED RESIDUAL FORCE      3.640E-09   AT NODE       1037   DOF  2
   INSTANCE: ELG Specimen 2024-1                                                             
  CORRESPONDING RESIDUAL FORCE      3.640E-09
 LARGEST INCREMENT OF DISP.         7.385E-09   AT NODE          1   DOF  2
   INSTANCE: {assembly node}                                                                 
 LARGEST CORRECTION TO DISP.        2.406E-12   AT NODE        319   DOF  2
   INSTANCE: ELG Specimen 2024-1                                                             
          THE FORCE     EQUILIBRIUM RESPONSE WAS LINEAR IN THIS INCREMENT

 AVERAGE MOMENT                      0.00       TIME AVG. MOMENT       115.    
                                                (FROM FORCE     FIELD)
 ALL MOMENT    RESIDUALS ARE ZERO
 LARGEST INCREMENT OF ROTATION     -1.411E-32   AT NODE          1   DOF  6
   INSTANCE: {assembly node}                                                                 
 LARGEST CORRECTION TO ROTATION     1.411E-32   AT NODE          1   DOF  6
   INSTANCE: {assembly node}                                                                 
          THERE IS ZERO MOMENT    EVERYWHERE

 MAXIMUM DIFFERENCE IN CREEP STRAIN INCREMENT IS   4.200E-18
          TIME INCREMENT MAY NOW INCREASE TO    6.000E-06

 ITERATION SUMMARY FOR THE INCREMENT:   1 TOTAL ITERATIONS, OF WHICH
   0 ARE SEVERE DISCONTINUITY ITERATIONS AND  1 ARE EQUILIBRIUM ITERATIONS.

 TIME INCREMENT COMPLETED  3.000E-06,  FRACTION OF STEP COMPLETED  3.516E-08
 STEP TIME COMPLETED       7.031E-06,  TOTAL TIME COMPLETED        0.200    


  INCREMENT    10 STARTS. ATTEMPT NUMBER  1, TIME INCREMENT  6.000E-06
 
	SYMMETRIC NEW DIRECT SPARSE SOLVER RUNNING ON
 	1 HOST x 1 MPI RANK PER HOST x 1 THREAD PER RANK
        NUMBER OF EQUATIONS:  3023
        NUMBER OF RHS:        1
        NUMBER OF FLOPS:      3.852e+06
        SOLVER ELAPSED TIME:  6ms

               CONVERGENCE CHECKS FOR EQUILIBRIUM ITERATION     1


 AVERAGE FORCE                       247.       TIME AVG. FORCE        247.    
 LARGEST SCALED RESIDUAL FORCE     -1.644E-09   AT NODE       1037   DOF  2
   INSTANCE: ELG Specimen 2024-1                                                             
  CORRESPONDING RESIDUAL FORCE     -1.644E-09
 LARGEST INCREMENT OF DISP.         1.477E-08   AT NODE          1   DOF  2
   INSTANCE: {assembly node}                                                                 
 LARGEST CORRECTION TO DISP.       -1.082E-12   AT NODE        319   DOF  2
   INSTANCE: ELG Specimen 2024-1                                                             
          THE FORCE     EQUILIBRIUM RESPONSE WAS LINEAR IN THIS INCREMENT

 AVERAGE MOMENT                      0.00       TIME AVG. MOMENT       115.    
                                                (FROM FORCE     FIELD)
 ALL MOMENT    RESIDUALS ARE ZERO
 LARGEST INCREMENT OF ROTATION     -1.411E-32   AT NODE          1   DOF  6
   INSTANCE: {assembly node}                                                                 
 LARGEST CORRECTION TO ROTATION     1.411E-32   AT NODE          1   DOF  6
   INSTANCE: {assembly node}                                                                 
          THERE IS ZERO MOMENT    EVERYWHERE

 MAXIMUM DIFFERENCE IN CREEP STRAIN INCREMENT IS   1.678E-17
          TIME INCREMENT MAY NOW INCREASE TO    1.200E-05

 ITERATION SUMMARY FOR THE INCREMENT:   1 TOTAL ITERATIONS, OF WHICH
   0 ARE SEVERE DISCONTINUITY ITERATIONS AND  1 ARE EQUILIBRIUM ITERATIONS.

 TIME INCREMENT COMPLETED  6.000E-06,  FRACTION OF STEP COMPLETED  6.516E-08
 STEP TIME COMPLETED       1.303E-05,  TOTAL TIME COMPLETED        0.200    


  INCREMENT    11 STARTS. ATTEMPT NUMBER  1, TIME INCREMENT  1.200E-05
 
	SYMMETRIC NEW DIRECT SPARSE SOLVER RUNNING ON
 	1 HOST x 1 MPI RANK PER HOST x 1 THREAD PER RANK
        NUMBER OF EQUATIONS:  3023
        NUMBER OF RHS:        1
        NUMBER OF FLOPS:      3.852e+06
        SOLVER ELAPSED TIME:  6ms

               CONVERGENCE CHECKS FOR EQUILIBRIUM ITERATION     1


 AVERAGE FORCE                       247.       TIME AVG. FORCE        247.    
 LARGEST SCALED RESIDUAL FORCE     -2.535E-11   AT NODE        432   DOF  2
   INSTANCE: ELG Specimen 2024-1                                                             
  CORRESPONDING RESIDUAL FORCE     -2.535E-11
 LARGEST INCREMENT OF DISP.         2.954E-08   AT NODE          1   DOF  2
   INSTANCE: {assembly node}                                                                 
 LARGEST CORRECTION TO DISP.       -8.079E-13   AT NODE        577   DOF  2
   INSTANCE: ELG Specimen 2024-1                                                             
          THE FORCE     EQUILIBRIUM RESPONSE WAS LINEAR IN THIS INCREMENT

 AVERAGE MOMENT                      0.00       TIME AVG. MOMENT       115.    
                                                (FROM FORCE     FIELD)
 ALL MOMENT    RESIDUALS ARE ZERO
 LARGEST INCREMENT OF ROTATION     -1.411E-32   AT NODE          1   DOF  6
   INSTANCE: {assembly node}                                                                 
 LARGEST CORRECTION TO ROTATION     1.411E-32   AT NODE          1   DOF  6
   INSTANCE: {assembly node}                                                                 
          THERE IS ZERO MOMENT    EVERYWHERE

 MAXIMUM DIFFERENCE IN CREEP STRAIN INCREMENT IS   6.712E-17
          TIME INCREMENT MAY NOW INCREASE TO    2.400E-05

 ITERATION SUMMARY FOR THE INCREMENT:   1 TOTAL ITERATIONS, OF WHICH
   0 ARE SEVERE DISCONTINUITY ITERATIONS AND  1 ARE EQUILIBRIUM ITERATIONS.

 TIME INCREMENT COMPLETED  1.200E-05,  FRACTION OF STEP COMPLETED  1.252E-07
 STEP TIME COMPLETED       2.503E-05,  TOTAL TIME COMPLETED        0.200    


  INCREMENT    12 STARTS. ATTEMPT NUMBER  1, TIME INCREMENT  2.400E-05
 
	SYMMETRIC NEW DIRECT SPARSE SOLVER RUNNING ON
 	1 HOST x 1 MPI RANK PER HOST x 1 THREAD PER RANK
        NUMBER OF EQUATIONS:  3023
        NUMBER OF RHS:        1
        NUMBER OF FLOPS:      3.852e+06
        SOLVER ELAPSED TIME:  10ms

               CONVERGENCE CHECKS FOR EQUILIBRIUM ITERATION     1


 AVERAGE FORCE                       247.       TIME AVG. FORCE        247.    
 LARGEST SCALED RESIDUAL FORCE      2.751E-11   AT NODE        480   DOF  2
   INSTANCE: ELG Specimen 2024-1                                                             
  CORRESPONDING RESIDUAL FORCE      2.751E-11
 LARGEST INCREMENT OF DISP.         5.907E-08   AT NODE          1   DOF  2
   INSTANCE: {assembly node}                                                                 
 LARGEST CORRECTION TO DISP.       -3.231E-12   AT NODE          1   DOF  2
   INSTANCE: {assembly node}                                                                 
          THE FORCE     EQUILIBRIUM RESPONSE WAS LINEAR IN THIS INCREMENT

 AVERAGE MOMENT                      0.00       TIME AVG. MOMENT       115.    
                                                (FROM FORCE     FIELD)
 ALL MOMENT    RESIDUALS ARE ZERO
 LARGEST INCREMENT OF ROTATION     -1.411E-32   AT NODE          1   DOF  6
   INSTANCE: {assembly node}                                                                 
 LARGEST CORRECTION TO ROTATION     1.411E-32   AT NODE          1   DOF  6
   INSTANCE: {assembly node}                                                                 
          THERE IS ZERO MOMENT    EVERYWHERE

 MAXIMUM DIFFERENCE IN CREEP STRAIN INCREMENT IS   2.685E-16
          TIME INCREMENT MAY NOW INCREASE TO    4.800E-05

 ITERATION SUMMARY FOR THE INCREMENT:   1 TOTAL ITERATIONS, OF WHICH
   0 ARE SEVERE DISCONTINUITY ITERATIONS AND  1 ARE EQUILIBRIUM ITERATIONS.

 TIME INCREMENT COMPLETED  2.400E-05,  FRACTION OF STEP COMPLETED  2.452E-07
 STEP TIME COMPLETED       4.903E-05,  TOTAL TIME COMPLETED        0.200    


  INCREMENT    13 STARTS. ATTEMPT NUMBER  1, TIME INCREMENT  4.800E-05
 
	SYMMETRIC NEW DIRECT SPARSE SOLVER RUNNING ON
 	1 HOST x 1 MPI RANK PER HOST x 1 THREAD PER RANK
        NUMBER OF EQUATIONS:  3023
        NUMBER OF RHS:        1
        NUMBER OF FLOPS:      3.852e+06
        SOLVER ELAPSED TIME:  5ms

               CONVERGENCE CHECKS FOR EQUILIBRIUM ITERATION     1


 AVERAGE FORCE                       247.       TIME AVG. FORCE        247.    
 LARGEST SCALED RESIDUAL FORCE      2.444E-11   AT NODE        470   DOF  2
   INSTANCE: ELG Specimen 2024-1                                                             
  CORRESPONDING RESIDUAL FORCE      2.444E-11
 LARGEST INCREMENT OF DISP.         1.181E-07   AT NODE          1   DOF  2
   INSTANCE: {assembly node}                                                                 
 LARGEST CORRECTION TO DISP.       -1.292E-11   AT NODE          1   DOF  2
   INSTANCE: {assembly node}                                                                 
          THE FORCE     EQUILIBRIUM RESPONSE WAS LINEAR IN THIS INCREMENT

 AVERAGE MOMENT                      0.00       TIME AVG. MOMENT       115.    
                                                (FROM FORCE     FIELD)
 ALL MOMENT    RESIDUALS ARE ZERO
 LARGEST INCREMENT OF ROTATION     -1.411E-32   AT NODE          1   DOF  6
   INSTANCE: {assembly node}                                                                 
 LARGEST CORRECTION TO ROTATION     1.411E-32   AT NODE          1   DOF  6
   INSTANCE: {assembly node}                                                                 
          THERE IS ZERO MOMENT    EVERYWHERE

 MAXIMUM DIFFERENCE IN CREEP STRAIN INCREMENT IS   1.074E-15
          TIME INCREMENT MAY NOW INCREASE TO    9.600E-05

 ITERATION SUMMARY FOR THE INCREMENT:   1 TOTAL ITERATIONS, OF WHICH
   0 ARE SEVERE DISCONTINUITY ITERATIONS AND  1 ARE EQUILIBRIUM ITERATIONS.

 TIME INCREMENT COMPLETED  4.800E-05,  FRACTION OF STEP COMPLETED  4.852E-07
 STEP TIME COMPLETED       9.703E-05,  TOTAL TIME COMPLETED        0.200    


  INCREMENT    14 STARTS. ATTEMPT NUMBER  1, TIME INCREMENT  9.600E-05
 
	SYMMETRIC NEW DIRECT SPARSE SOLVER RUNNING ON
 	1 HOST x 1 MPI RANK PER HOST x 1 THREAD PER RANK
        NUMBER OF EQUATIONS:  3023
        NUMBER OF RHS:        1
        NUMBER OF FLOPS:      3.852e+06
        SOLVER ELAPSED TIME:  8ms

               CONVERGENCE CHECKS FOR EQUILIBRIUM ITERATION     1


 AVERAGE FORCE                       247.       TIME AVG. FORCE        247.    
 LARGEST SCALED RESIDUAL FORCE     -2.728E-11   AT NODE          1   DOF  2
   INSTANCE:                                                                                 
  CORRESPONDING RESIDUAL FORCE     -2.728E-11
 LARGEST INCREMENT OF DISP.         2.362E-07   AT NODE          1   DOF  2
   INSTANCE: {assembly node}                                                                 
 LARGEST CORRECTION TO DISP.       -5.166E-11   AT NODE          1   DOF  2
   INSTANCE: {assembly node}                                                                 
          THE FORCE     EQUILIBRIUM RESPONSE WAS LINEAR IN THIS INCREMENT

 AVERAGE MOMENT                      0.00       TIME AVG. MOMENT       115.    
                                                (FROM FORCE     FIELD)
 ALL MOMENT    RESIDUALS ARE ZERO
 LARGEST INCREMENT OF ROTATION     -1.411E-32   AT NODE          1   DOF  6
   INSTANCE: {assembly node}                                                                 
 LARGEST CORRECTION TO ROTATION     1.411E-32   AT NODE          1   DOF  6
   INSTANCE: {assembly node}                                                                 
          THERE IS ZERO MOMENT    EVERYWHERE

 MAXIMUM DIFFERENCE IN CREEP STRAIN INCREMENT IS   4.293E-15
          TIME INCREMENT MAY NOW INCREASE TO    1.920E-04

 ITERATION SUMMARY FOR THE INCREMENT:   1 TOTAL ITERATIONS, OF WHICH
   0 ARE SEVERE DISCONTINUITY ITERATIONS AND  1 ARE EQUILIBRIUM ITERATIONS.

 TIME INCREMENT COMPLETED  9.600E-05,  FRACTION OF STEP COMPLETED  9.652E-07
 STEP TIME COMPLETED       1.930E-04,  TOTAL TIME COMPLETED        0.200    


  INCREMENT    15 STARTS. ATTEMPT NUMBER  1, TIME INCREMENT  1.920E-04
 
	SYMMETRIC NEW DIRECT SPARSE SOLVER RUNNING ON
 	1 HOST x 1 MPI RANK PER HOST x 1 THREAD PER RANK
        NUMBER OF EQUATIONS:  3023
        NUMBER OF RHS:        1
        NUMBER OF FLOPS:      3.852e+06
        SOLVER ELAPSED TIME:  6ms

               CONVERGENCE CHECKS FOR EQUILIBRIUM ITERATION     1


 AVERAGE FORCE                       247.       TIME AVG. FORCE        247.    
 LARGEST SCALED RESIDUAL FORCE     -0.336       AT NODE        263   DOF  1
   INSTANCE: ELG Specimen 2024-1                                                             
  CORRESPONDING RESIDUAL FORCE     -0.336    
 LARGEST INCREMENT OF DISP.         7.584E-05   AT NODE          5   DOF  2
   INSTANCE: ELG Specimen 2024-1                                                             
 LARGEST CORRECTION TO DISP.        7.538E-05   AT NODE          5   DOF  2
   INSTANCE: ELG Specimen 2024-1                                                             
          DISP.    CORRECTION TOO LARGE COMPARED TO DISP.    INCREMENT

 AVERAGE MOMENT                      0.00       TIME AVG. MOMENT       115.    
                                                (FROM FORCE     FIELD)
 ALL MOMENT    RESIDUALS ARE ZERO
 LARGEST INCREMENT OF ROTATION     -1.411E-32   AT NODE          1   DOF  6
   INSTANCE: {assembly node}                                                                 
 LARGEST CORRECTION TO ROTATION     1.411E-32   AT NODE          1   DOF  6
   INSTANCE: {assembly node}                                                                 
          THERE IS ZERO MOMENT    EVERYWHERE
 
	SYMMETRIC NEW DIRECT SPARSE SOLVER RUNNING ON
 	1 HOST x 1 MPI RANK PER HOST x 1 THREAD PER RANK
        NUMBER OF EQUATIONS:  3023
        NUMBER OF RHS:        1
        NUMBER OF FLOPS:      3.852e+06
        SOLVER ELAPSED TIME:  6ms

               CONVERGENCE CHECKS FOR EQUILIBRIUM ITERATION     2


 AVERAGE FORCE                       247.       TIME AVG. FORCE        247.    
[...]
   0 ARE SEVERE DISCONTINUITY ITERATIONS AND  2 ARE EQUILIBRIUM ITERATIONS.

 TIME INCREMENT COMPLETED   10.9    ,  FRACTION OF STEP COMPLETED  0.164    
 STEP TIME COMPLETED        32.7    ,  TOTAL TIME COMPLETED         32.9    


  INCREMENT    45 STARTS. ATTEMPT NUMBER  1, TIME INCREMENT   16.4    
 
	SYMMETRIC NEW DIRECT SPARSE SOLVER RUNNING ON
 	1 HOST x 1 MPI RANK PER HOST x 1 THREAD PER RANK
        NUMBER OF EQUATIONS:  3023
        NUMBER OF RHS:        1
        NUMBER OF FLOPS:      3.852e+06
        SOLVER ELAPSED TIME:  6ms

               CONVERGENCE CHECKS FOR EQUILIBRIUM ITERATION     1


 AVERAGE FORCE                       247.       TIME AVG. FORCE        247.    
 LARGEST SCALED RESIDUAL FORCE      -1.54       AT NODE        346   DOF  1
   INSTANCE: ELG Specimen 2024-1                                                             
  CORRESPONDING RESIDUAL FORCE      -1.54    
 LARGEST INCREMENT OF DISP.         1.788E-03   AT NODE          1   DOF  2
   INSTANCE: {assembly node}                                                                 
 LARGEST CORRECTION TO DISP.       -5.025E-04   AT NODE          1   DOF  2
   INSTANCE: {assembly node}                                                                 
          FORCE     EQUILIBRIUM NOT ACHIEVED WITHIN TOLERANCE.

 AVERAGE MOMENT                      0.00       TIME AVG. MOMENT       115.    
                                                (FROM FORCE     FIELD)
 ALL MOMENT    RESIDUALS ARE ZERO
 LARGEST INCREMENT OF ROTATION     -1.412E-32   AT NODE          1   DOF  6
   INSTANCE: {assembly node}                                                                 
 LARGEST CORRECTION TO ROTATION     7.057E-33   AT NODE          1   DOF  6
   INSTANCE: {assembly node}                                                                 
          THERE IS ZERO MOMENT    EVERYWHERE
 
	SYMMETRIC NEW DIRECT SPARSE SOLVER RUNNING ON
 	1 HOST x 1 MPI RANK PER HOST x 1 THREAD PER RANK
        NUMBER OF EQUATIONS:  3023
        NUMBER OF RHS:        1
        NUMBER OF FLOPS:      3.852e+06
        SOLVER ELAPSED TIME:  7ms

               CONVERGENCE CHECKS FOR EQUILIBRIUM ITERATION     2


 AVERAGE FORCE                       247.       TIME AVG. FORCE        247.    
 LARGEST SCALED RESIDUAL FORCE     -9.576E-02   AT NODE       1490   DOF  1
   INSTANCE: ELG Specimen 2024-1                                                             
  CORRESPONDING RESIDUAL FORCE     -9.576E-02
 LARGEST INCREMENT OF DISP.         1.791E-03   AT NODE          1   DOF  2
   INSTANCE: {assembly node}                                                                 
 LARGEST CORRECTION TO DISP.        3.055E-06   AT NODE        648   DOF  2
   INSTANCE: ELG Specimen 2024-1                                                             
          THE FORCE     EQUILIBRIUM EQUATIONS HAVE CONVERGED

 AVERAGE MOMENT                      0.00       TIME AVG. MOMENT       115.    
                                                (FROM FORCE     FIELD)
 ALL MOMENT    RESIDUALS ARE ZERO
 LARGEST INCREMENT OF ROTATION     -1.412E-32   AT NODE          1   DOF  6
   INSTANCE: {assembly node}                                                                 
 LARGEST CORRECTION TO ROTATION     1.084E-39   AT NODE          1   DOF  6
   INSTANCE: {assembly node}                                                                 
          THERE IS ZERO MOMENT    EVERYWHERE

 MAXIMUM DIFFERENCE IN CREEP STRAIN INCREMENT IS   2.118E-08
          TIME INCREMENT MAY NOW INCREASE TO     24.5    

 ITERATION SUMMARY FOR THE INCREMENT:   2 TOTAL ITERATIONS, OF WHICH
   0 ARE SEVERE DISCONTINUITY ITERATIONS AND  2 ARE EQUILIBRIUM ITERATIONS.

 TIME INCREMENT COMPLETED   16.4    ,  FRACTION OF STEP COMPLETED  0.245    
 STEP TIME COMPLETED        49.1    ,  TOTAL TIME COMPLETED         49.3    


  INCREMENT    46 STARTS. ATTEMPT NUMBER  1, TIME INCREMENT   24.5    
 
	SYMMETRIC NEW DIRECT SPARSE SOLVER RUNNING ON
 	1 HOST x 1 MPI RANK PER HOST x 1 THREAD PER RANK
        NUMBER OF EQUATIONS:  3023
        NUMBER OF RHS:        1
        NUMBER OF FLOPS:      3.852e+06
        SOLVER ELAPSED TIME:  6ms

               CONVERGENCE CHECKS FOR EQUILIBRIUM ITERATION     1


 AVERAGE FORCE                       247.       TIME AVG. FORCE        247.    
 LARGEST SCALED RESIDUAL FORCE      -1.84       AT NODE        346   DOF  1
   INSTANCE: ELG Specimen 2024-1                                                             
  CORRESPONDING RESIDUAL FORCE      -1.84    
 LARGEST INCREMENT OF DISP.         2.096E-03   AT NODE          1   DOF  2
   INSTANCE: {assembly node}                                                                 
 LARGEST CORRECTION TO DISP.       -5.909E-04   AT NODE          1   DOF  2
   INSTANCE: {assembly node}                                                                 
          FORCE     EQUILIBRIUM NOT ACHIEVED WITHIN TOLERANCE.

 AVERAGE MOMENT                      0.00       TIME AVG. MOMENT       115.    
                                                (FROM FORCE     FIELD)
 ALL MOMENT    RESIDUALS ARE ZERO
 LARGEST INCREMENT OF ROTATION     -1.412E-32   AT NODE          1   DOF  6
   INSTANCE: {assembly node}                                                                 
 LARGEST CORRECTION TO ROTATION     7.057E-33   AT NODE          1   DOF  6
   INSTANCE: {assembly node}                                                                 
          THERE IS ZERO MOMENT    EVERYWHERE
 
	SYMMETRIC NEW DIRECT SPARSE SOLVER RUNNING ON
 	1 HOST x 1 MPI RANK PER HOST x 1 THREAD PER RANK
        NUMBER OF EQUATIONS:  3023
        NUMBER OF RHS:        1
        NUMBER OF FLOPS:      3.852e+06
        SOLVER ELAPSED TIME:  6ms

               CONVERGENCE CHECKS FOR EQUILIBRIUM ITERATION     2


 AVERAGE FORCE                       247.       TIME AVG. FORCE        247.    
 LARGEST SCALED RESIDUAL FORCE     -0.111       AT NODE       1490   DOF  1
   INSTANCE: ELG Specimen 2024-1                                                             
  CORRESPONDING RESIDUAL FORCE     -0.111    
 LARGEST INCREMENT OF DISP.         2.100E-03   AT NODE          1   DOF  2
   INSTANCE: {assembly node}                                                                 
 LARGEST CORRECTION TO DISP.        4.562E-06   AT NODE        640   DOF  2
   INSTANCE: ELG Specimen 2024-1                                                             
          THE FORCE     EQUILIBRIUM EQUATIONS HAVE CONVERGED

 AVERAGE MOMENT                      0.00       TIME AVG. MOMENT       115.    
                                                (FROM FORCE     FIELD)
 ALL MOMENT    RESIDUALS ARE ZERO
 LARGEST INCREMENT OF ROTATION     -1.412E-32   AT NODE          1   DOF  6
   INSTANCE: {assembly node}                                                                 
 LARGEST CORRECTION TO ROTATION     1.019E-39   AT NODE          1   DOF  6
   INSTANCE: {assembly node}                                                                 
          THERE IS ZERO MOMENT    EVERYWHERE

 MAXIMUM DIFFERENCE IN CREEP STRAIN INCREMENT IS   2.915E-08
          TIME INCREMENT MAY NOW INCREASE TO     36.8    

 ITERATION SUMMARY FOR THE INCREMENT:   2 TOTAL ITERATIONS, OF WHICH
   0 ARE SEVERE DISCONTINUITY ITERATIONS AND  2 ARE EQUILIBRIUM ITERATIONS.

 TIME INCREMENT COMPLETED   24.5    ,  FRACTION OF STEP COMPLETED  0.368    
 STEP TIME COMPLETED        73.6    ,  TOTAL TIME COMPLETED         73.8    


  INCREMENT    47 STARTS. ATTEMPT NUMBER  1, TIME INCREMENT   36.8    
 
	SYMMETRIC NEW DIRECT SPARSE SOLVER RUNNING ON
 	1 HOST x 1 MPI RANK PER HOST x 1 THREAD PER RANK
        NUMBER OF EQUATIONS:  3023
        NUMBER OF RHS:        1
        NUMBER OF FLOPS:      3.852e+06
        SOLVER ELAPSED TIME:  5ms

               CONVERGENCE CHECKS FOR EQUILIBRIUM ITERATION     1


 AVERAGE FORCE                       247.       TIME AVG. FORCE        247.    
 LARGEST SCALED RESIDUAL FORCE      -1.91       AT NODE        346   DOF  1
   INSTANCE: ELG Specimen 2024-1                                                             
  CORRESPONDING RESIDUAL FORCE      -1.91    
 LARGEST INCREMENT OF DISP.         2.461E-03   AT NODE          1   DOF  2
   INSTANCE: {assembly node}                                                                 
 LARGEST CORRECTION TO DISP.       -6.901E-04   AT NODE          1   DOF  2
   INSTANCE: {assembly node}                                                                 
          FORCE     EQUILIBRIUM NOT ACHIEVED WITHIN TOLERANCE.

 AVERAGE MOMENT                      0.00       TIME AVG. MOMENT       115.    
                                                (FROM FORCE     FIELD)
 ALL MOMENT    RESIDUALS ARE ZERO
 LARGEST INCREMENT OF ROTATION     -1.412E-32   AT NODE          1   DOF  6
   INSTANCE: {assembly node}                                                                 
 LARGEST CORRECTION TO ROTATION     7.058E-33   AT NODE          1   DOF  6
   INSTANCE: {assembly node}                                                                 
          THERE IS ZERO MOMENT    EVERYWHERE
 
	SYMMETRIC NEW DIRECT SPARSE SOLVER RUNNING ON
 	1 HOST x 1 MPI RANK PER HOST x 1 THREAD PER RANK
        NUMBER OF EQUATIONS:  3023
        NUMBER OF RHS:        1
        NUMBER OF FLOPS:      3.852e+06
        SOLVER ELAPSED TIME:  6ms

               CONVERGENCE CHECKS FOR EQUILIBRIUM ITERATION     2


 AVERAGE FORCE                       247.       TIME AVG. FORCE        247.    
 LARGEST SCALED RESIDUAL FORCE     -0.130       AT NODE       1490   DOF  1
   INSTANCE: ELG Specimen 2024-1                                                             
  CORRESPONDING RESIDUAL FORCE     -0.130    
 LARGEST INCREMENT OF DISP.         2.464E-03   AT NODE          1   DOF  2
   INSTANCE: {assembly node}                                                                 
 LARGEST CORRECTION TO DISP.        3.522E-06   AT NODE          1   DOF  2
   INSTANCE: ELG Specimen 2024-1                                                             
          THE FORCE     EQUILIBRIUM EQUATIONS HAVE CONVERGED

 AVERAGE MOMENT                      0.00       TIME AVG. MOMENT       115.    
                                                (FROM FORCE     FIELD)
 ALL MOMENT    RESIDUALS ARE ZERO
 LARGEST INCREMENT OF ROTATION     -1.412E-32   AT NODE          1   DOF  6
   INSTANCE: {assembly node}                                                                 
 LARGEST CORRECTION TO ROTATION     1.338E-39   AT NODE          1   DOF  6
   INSTANCE: {assembly node}                                                                 
          THERE IS ZERO MOMENT    EVERYWHERE

 MAXIMUM DIFFERENCE IN CREEP STRAIN INCREMENT IS   4.014E-08
          TIME INCREMENT MAY NOW INCREASE TO     55.2    

 ITERATION SUMMARY FOR THE INCREMENT:   2 TOTAL ITERATIONS, OF WHICH
   0 ARE SEVERE DISCONTINUITY ITERATIONS AND  2 ARE EQUILIBRIUM ITERATIONS.

 TIME INCREMENT COMPLETED   36.8    ,  FRACTION OF STEP COMPLETED  0.552    
 STEP TIME COMPLETED        110.    ,  TOTAL TIME COMPLETED         111.    


  INCREMENT    48 STARTS. ATTEMPT NUMBER  1, TIME INCREMENT   55.2    
 
	SYMMETRIC NEW DIRECT SPARSE SOLVER RUNNING ON
 	1 HOST x 1 MPI RANK PER HOST x 1 THREAD PER RANK
        NUMBER OF EQUATIONS:  3023
        NUMBER OF RHS:        1
        NUMBER OF FLOPS:      3.852e+06
        SOLVER ELAPSED TIME:  6ms

               CONVERGENCE CHECKS FOR EQUILIBRIUM ITERATION     1


 AVERAGE FORCE                       248.       TIME AVG. FORCE        247.    
 LARGEST SCALED RESIDUAL FORCE      -2.31       AT NODE        346   DOF  1
   INSTANCE: ELG Specimen 2024-1                                                             
  CORRESPONDING RESIDUAL FORCE      -2.31    
 LARGEST INCREMENT OF DISP.         2.885E-03   AT NODE          1   DOF  2
   INSTANCE: {assembly node}                                                                 
 LARGEST CORRECTION TO DISP.       -8.111E-04   AT NODE          1   DOF  2
   INSTANCE: {assembly node}                                                                 
          FORCE     EQUILIBRIUM NOT ACHIEVED WITHIN TOLERANCE.

 AVERAGE MOMENT                      0.00       TIME AVG. MOMENT       115.    
                                                (FROM FORCE     FIELD)
 ALL MOMENT    RESIDUALS ARE ZERO
 LARGEST INCREMENT OF ROTATION     -1.412E-32   AT NODE          1   DOF  6
   INSTANCE: {assembly node}                                                                 
 LARGEST CORRECTION TO ROTATION     7.058E-33   AT NODE          1   DOF  6
   INSTANCE: {assembly node}                                                                 
          THERE IS ZERO MOMENT    EVERYWHERE
 
	SYMMETRIC NEW DIRECT SPARSE SOLVER RUNNING ON
 	1 HOST x 1 MPI RANK PER HOST x 1 THREAD PER RANK
        NUMBER OF EQUATIONS:  3023
        NUMBER OF RHS:        1
        NUMBER OF FLOPS:      3.852e+06
        SOLVER ELAPSED TIME:  5ms

               CONVERGENCE CHECKS FOR EQUILIBRIUM ITERATION     2


 AVERAGE FORCE                       248.       TIME AVG. FORCE        247.    
 LARGEST SCALED RESIDUAL FORCE     -0.149       AT NODE       1490   DOF  1
   INSTANCE: ELG Specimen 2024-1                                                             
  CORRESPONDING RESIDUAL FORCE     -0.149    
 LARGEST INCREMENT OF DISP.         2.890E-03   AT NODE          1   DOF  2
   INSTANCE: {assembly node}                                                                 
 LARGEST CORRECTION TO DISP.        5.528E-06   AT NODE        640   DOF  2
   INSTANCE: ELG Specimen 2024-1                                                             
          THE FORCE     EQUILIBRIUM EQUATIONS HAVE CONVERGED

 AVERAGE MOMENT                      0.00       TIME AVG. MOMENT       115.    
                                                (FROM FORCE     FIELD)
 ALL MOMENT    RESIDUALS ARE ZERO
 LARGEST INCREMENT OF ROTATION     -1.412E-32   AT NODE          1   DOF  6
   INSTANCE: {assembly node}                                                                 
 LARGEST CORRECTION TO ROTATION     1.388E-39   AT NODE          1   DOF  6
   INSTANCE: {assembly node}                                                                 
          THERE IS ZERO MOMENT    EVERYWHERE

 MAXIMUM DIFFERENCE IN CREEP STRAIN INCREMENT IS   5.557E-08

 ITERATION SUMMARY FOR THE INCREMENT:   2 TOTAL ITERATIONS, OF WHICH
   0 ARE SEVERE DISCONTINUITY ITERATIONS AND  2 ARE EQUILIBRIUM ITERATIONS.

 TIME INCREMENT COMPLETED   55.2    ,  FRACTION OF STEP COMPLETED  0.828    
 STEP TIME COMPLETED        166.    ,  TOTAL TIME COMPLETED         166.    


  INCREMENT    49 STARTS. ATTEMPT NUMBER  1, TIME INCREMENT   34.3    
 
	SYMMETRIC NEW DIRECT SPARSE SOLVER RUNNING ON
 	1 HOST x 1 MPI RANK PER HOST x 1 THREAD PER RANK
        NUMBER OF EQUATIONS:  3023
        NUMBER OF RHS:        1
        NUMBER OF FLOPS:      3.852e+06
        SOLVER ELAPSED TIME:  5ms

               CONVERGENCE CHECKS FOR EQUILIBRIUM ITERATION     1


 AVERAGE FORCE                       248.       TIME AVG. FORCE        247.    
 LARGEST SCALED RESIDUAL FORCE      -1.68       AT NODE        346   DOF  1
   INSTANCE: ELG Specimen 2024-1                                                             
  CORRESPONDING RESIDUAL FORCE      -1.68    
 LARGEST INCREMENT OF DISP.         1.506E-03   AT NODE          1   DOF  2
   INSTANCE: {assembly node}                                                                 
 LARGEST CORRECTION TO DISP.       -2.907E-04   AT NODE          1   DOF  2
   INSTANCE: {assembly node}                                                                 
          FORCE     EQUILIBRIUM NOT ACHIEVED WITHIN TOLERANCE.

 AVERAGE MOMENT                      0.00       TIME AVG. MOMENT       115.    
                                                (FROM FORCE     FIELD)
 ALL MOMENT    RESIDUALS ARE ZERO
 LARGEST INCREMENT OF ROTATION     -1.412E-32   AT NODE          1   DOF  6
   INSTANCE: {assembly node}                                                                 
 LARGEST CORRECTION TO ROTATION    -5.345E-33   AT NODE          1   DOF  6
   INSTANCE: {assembly node}                                                                 
          THERE IS ZERO MOMENT    EVERYWHERE
 
	SYMMETRIC NEW DIRECT SPARSE SOLVER RUNNING ON
 	1 HOST x 1 MPI RANK PER HOST x 1 THREAD PER RANK
        NUMBER OF EQUATIONS:  3023
        NUMBER OF RHS:        1
        NUMBER OF FLOPS:      3.852e+06
        SOLVER ELAPSED TIME:  9ms

               CONVERGENCE CHECKS FOR EQUILIBRIUM ITERATION     2


 AVERAGE FORCE                       248.       TIME AVG. FORCE        247.    
 LARGEST SCALED RESIDUAL FORCE     -0.113       AT NODE       1489   DOF  1
   INSTANCE: ELG Specimen 2024-1                                                             
  CORRESPONDING RESIDUAL FORCE     -0.113    
 LARGEST INCREMENT OF DISP.         1.508E-03   AT NODE          1   DOF  2
   INSTANCE: {assembly node}                                                                 
 LARGEST CORRECTION TO DISP.        2.020E-06   AT NODE        640   DOF  2
   INSTANCE: ELG Specimen 2024-1                                                             
          THE FORCE     EQUILIBRIUM EQUATIONS HAVE CONVERGED

 AVERAGE MOMENT                      0.00       TIME AVG. MOMENT       115.    
                                                (FROM FORCE     FIELD)
 ALL MOMENT    RESIDUALS ARE ZERO
 LARGEST INCREMENT OF ROTATION     -1.412E-32   AT NODE          1   DOF  6
   INSTANCE: {assembly node}                                                                 
 LARGEST CORRECTION TO ROTATION     1.120E-39   AT NODE          1   DOF  6
   INSTANCE: {assembly node}                                                                 
          THERE IS ZERO MOMENT    EVERYWHERE

 MAXIMUM DIFFERENCE IN CREEP STRAIN INCREMENT IS   1.607E-08

 ITERATION SUMMARY FOR THE INCREMENT:   2 TOTAL ITERATIONS, OF WHICH
   0 ARE SEVERE DISCONTINUITY ITERATIONS AND  2 ARE EQUILIBRIUM ITERATIONS.

 TIME INCREMENT COMPLETED   34.3    ,  FRACTION OF STEP COMPLETED   1.00    
 STEP TIME COMPLETED        200.    ,  TOTAL TIME COMPLETED         200.    


          THE ANALYSIS HAS BEEN COMPLETED



     ANALYSIS SUMMARY:
     TOTAL OF         50  INCREMENTS
                       2  CUTBACKS IN AUTOMATIC INCREMENTATION
                     117  ITERATIONS INCLUDING CONTACT ITERATIONS IF PRESENT
                     117  PASSES THROUGH THE EQUATION SOLVER OF WHICH 
                     117  INVOLVE MATRIX DECOMPOSITION, INCLUDING
                       0  DECOMPOSITION(S) OF THE MASS MATRIX
                       1  REORDERING OF EQUATIONS TO MINIMIZE WAVEFRONT
                       0  ADDITIONAL RESIDUAL EVALUATIONS FOR LINE SEARCHES
                       0  ADDITIONAL OPERATOR EVALUATIONS FOR LINE SEARCHES
                       2  WARNING MESSAGES DURING USER INPUT PROCESSING
                       3  WARNING MESSAGES DURING ANALYSIS
                       0  ANALYSIS WARNINGS ARE NUMERICAL PROBLEM MESSAGES
                       0  ANALYSIS WARNINGS ARE NEGATIVE EIGENVALUE MESSAGES
                       0  ERROR MESSAGES



     JOB TIME SUMMARY
       USER TIME (SEC)      =      1.4    
       SYSTEM TIME (SEC)    =     0.10    
       TOTAL CPU TIME (SEC) =      1.5    
       WALLCLOCK TIME (SEC) =            9
       MEMORY PEAK (GB)     =            0
