 Abaqus/Standard 2024                  DATE 20-Mar-2025 TIME 15:16:26
 SUMMARY OF JOB INFORMATION:
 STEP  INC ATT SEVERE EQUIL TOTAL  TOTAL      STEP       INC OF       DOF    IF
               DISCON ITERS ITERS  TIME/    TIME/LPF    TIME/LPF    MONITOR RIKS
               ITERS               FREQ
   1     1   1     0     6     6  0.140      0.140      0.1400    
   2     1   1     0     9     9  0.140      1.00e-06   1.000e-06 
   2     2   1     0     3     3  0.140      2.00e-06   1.000e-06 
   2     3   1     0     1     1  0.140      3.00e-06   1.000e-06 
   2     4   1     0     1     1  0.140      5.00e-06   2.000e-06 
   2     5   1     0     1     1  0.140      9.00e-06   4.000e-06 
   2     6   1     0     1     1  0.140      1.70e-05   8.000e-06 
   2     7   1     0     1     1  0.140      3.30e-05   1.600e-05 
   2     8   1     0     1     1  0.140      6.50e-05   3.200e-05 
   2     9   1     0     5     5  0.140      0.000129   6.400e-05 
   2    10   1     0     2     2  0.140      0.000193   6.400e-05 
   2    11   1     0     5     5  0.140      0.000257   6.400e-05 
   2    12   1     0     3     3  0.140      0.000321   6.400e-05 
   2    13   1     0     4     4  0.140      0.000385   6.400e-05 
   2    14   1     0     3     3  0.140      0.000481   9.600e-05 
   2    15   1     0     4     4  0.141      0.000625   0.0001440 
   2    16   1     0     3     3  0.141      0.000841   0.0002160 
   2    17   1     0     4     4  0.141      0.00116    0.0003240 
   2    18   1     0     3     3  0.142      0.00165    0.0004860 
   2    19   1     0     3     3  0.142      0.00238    0.0007290 
   2    20   1     0     2     2  0.143      0.00347    0.001093  
   2    21   1     0     2     2  0.145      0.00511    0.001640  
   2    22   1     0     2     2  0.148      0.00757    0.002460  
   2    23   1     0     2     2  0.151      0.0113     0.003691  
   2    24   1     0     2     2  0.157      0.0168     0.005536  
   2    25   1     0     2     2  0.165      0.0251     0.008304  
   2    26   1     0     2     2  0.178      0.0376     0.01246   
   2    27   1     0     2     2  0.196      0.0562     0.01868   
   2    28   1     0     2     2  0.224      0.0843     0.02803   
   2    29   1     0     2     2  0.266      0.126      0.04204   
   2    30   1     0     2     2  0.329      0.189      0.06306   
   2    31   1     0     2     2  0.424      0.284      0.09459   
   2    32   1     0     2     2  0.566      0.426      0.1419    
   2    33   1     0     2     2  0.779      0.639      0.2128    
   2    34   1     0     2     2  1.10       0.958      0.3192    
   2    35   1     0     2     2  1.58       1.44       0.4788    
   2    36   1     0     2     2  2.29       2.15       0.7183    
   2    37   1     0     2     2  3.37       3.23       1.077     
   2    38   1     0     2     2  4.99       4.85       1.616     
   2    39   1     0     2     2  7.41       7.27       2.424     
   2    40   1     0     2     2  11.0       10.9       3.636     
   2    41   1     0     2     2  16.5       16.4       5.454     
   2    42   1     0     2     2  24.7       24.5       8.181     
   2    43   1     0     2     2  37.0       36.8       12.27     
   2    44   1     0     2     2  55.4       55.2       18.41     
   2    45   1     0     2     2  83.0       82.8       27.61     
   2    46   1     0     2     2  124.       124.       41.42     
   2    47   1     0     2     2  187.       186.       62.13     
   2    48   1     0     1     1  200.       200.       13.62     
                          
 THE ANALYSIS HAS COMPLETED SUCCESSFULLY
