1

   Abaqus 2024                                  Date 20-Mar-2025   Time 15:16:25
   For use by UNIVERSITY OF BRISTOL under license from Dassault Systemes or its subsidiary.

                                                                                 
                                                                                 
 STEP    1     INCREMENT     1     STEP TIME    0.00    


                        S T E P       1     S T A T I C   A N A L Y S I S


                                                                                          

     AUTOMATIC TIME CONTROL WITH -
          A SUGGESTED INITIAL TIME INCREMENT OF                0.140    
          AND A TOTAL TIME PERIOD OF                           0.140    
          THE MINIMUM TIME INCREMENT ALLOWED IS                1.400E-06
          THE MAXIMUM TIME INCREMENT ALLOWED IS                0.140    

     LINEAR EQUATION SOLVER TYPE         DIRECT SPARSE

 CONVERGENCE TOLERANCE PARAMETERS FOR FORCE    
     CRITERION FOR RESIDUAL FORCE     FOR A NONLINEAR PROBLEM          5.000E-03
     CRITERION FOR DISP.    CORRECTION IN A NONLINEAR PROBLEM          1.000E-02
     INITIAL VALUE OF TIME AVERAGE FORCE                               1.000E-02
     AVERAGE FORCE     IS TIME AVERAGE FORCE    
     ALTERNATE CRIT. FOR RESIDUAL FORCE     FOR A NONLINEAR PROBLEM    2.000E-02
     CRITERION FOR ZERO FORCE     RELATIVE TO TIME AVRG. FORCE         1.000E-05
     CRITERION FOR RESIDUAL FORCE     WHEN THERE IS ZERO FLUX          1.000E-05
     CRITERION FOR DISP.    CORRECTION WHEN THERE IS ZERO FLUX         1.000E-03
     CRITERION FOR RESIDUAL FORCE     FOR A LINEAR INCREMENT           1.000E-08
     FIELD CONVERSION RATIO                                             1.00    
     CRITERION FOR ZERO FORCE     REL. TO TIME AVRG. MAX. FORCE        1.000E-05
     CRITERION FOR ZERO DISP.    RELATIVE TO CHARACTERISTIC LENGTH     1.000E-08

 CONVERGENCE TOLERANCE PARAMETERS FOR MOMENT   
     CRITERION FOR RESIDUAL MOMENT    FOR A NONLINEAR PROBLEM          5.000E-03
     CRITERION FOR ROTATION CORRECTION IN A NONLINEAR PROBLEM          1.000E-02
     INITIAL VALUE OF TIME AVERAGE MOMENT                              1.000E-02
     AVERAGE MOMENT    IS TIME AVERAGE MOMENT   
     ALTERNATE CRIT. FOR RESIDUAL MOMENT    FOR A NONLINEAR PROBLEM    2.000E-02
     CRITERION FOR ZERO MOMENT    RELATIVE TO TIME AVRG. MOMENT        1.000E-05
     CRITERION FOR RESIDUAL MOMENT    WHEN THERE IS ZERO FLUX          1.000E-05
     CRITERION FOR ROTATION CORRECTION WHEN THERE IS ZERO FLUX         1.000E-03
     CRITERION FOR RESIDUAL MOMENT    FOR A LINEAR INCREMENT           1.000E-08
     FIELD CONVERSION RATIO                                             1.00    
     CRITERION FOR ZERO MOMENT    REL. TO TIME AVRG. MAX. MOMENT       1.000E-05

     VOLUMETRIC STRAIN COMPATIBILITY TOLERANCE FOR HYBRID SOLIDS       1.000E-05
     AXIAL STRAIN COMPATIBILITY TOLERANCE FOR HYBRID BEAMS             1.000E-05
     TRANS. SHEAR STRAIN COMPATIBILITY TOLERANCE FOR HYBRID BEAMS      1.000E-05
     SOFT CONTACT CONSTRAINT COMPATIBILITY TOLERANCE FOR P>P0          5.000E-03
     SOFT CONTACT CONSTRAINT COMPATIBILITY TOLERANCE FOR P=0.0         0.100    
     CONTACT FORCE ERROR TOLERANCE FOR CONVERT SDI=YES                 1.00    
     DISPLACEMENT COMPATIBILITY TOLERANCE FOR DCOUP ELEMENTS           1.000E-05
     ROTATION COMPATIBILITY TOLERANCE FOR DCOUP ELEMENTS               1.000E-05

 EQUILIBRIUM WILL BE CHECKED FOR SEVERE DISCONTINUITY ITERATIONS

 TIME INCREMENTATION CONTROL PARAMETERS:
     FIRST EQUILIBRIUM ITERATION FOR CONSECUTIVE DIVERGENCE CHECK              4
     EQUILIBRIUM ITERATION AT WHICH LOG. CONVERGENCE RATE CHECK BEGINS         8
     EQUILIBRIUM ITERATION AFTER WHICH ALTERNATE RESIDUAL IS USED              9
     MAXIMUM EQUILIBRIUM ITERATIONS ALLOWED                                   16
     EQUILIBRIUM ITERATION COUNT FOR CUT-BACK IN NEXT INCREMENT               10
     MAXIMUM EQUILIB. ITERS IN TWO INCREMENTS FOR TIME INCREMENT INCREASE      4
     MAXIMUM ITERATIONS FOR SEVERE DISCONTINUITIES                            50
     MAXIMUM ATTEMPTS ALLOWED IN AN INCREMENT                                  5
     MAXIMUM DISCON. ITERS IN TWO INCREMENTS FOR TIME INCREMENT INCREASE      50
     MAXIMUM CONTACT AUGMENTATIONS FOR *SURFACE BEHAVIOR,AUGMENTED LAGRANGE   50
     CUT-BACK FACTOR AFTER DIVERGENCE                                 0.2500    
     CUT-BACK FACTOR FOR TOO SLOW CONVERGENCE                         0.5000    
     CUT-BACK FACTOR AFTER TOO MANY EQUILIBRIUM ITERATIONS            0.7500    
     CUT-BACK FACTOR AFTER TOO MANY SEVERE DISCONTINUITY ITERATIONS   0.2500    
     CUT-BACK FACTOR AFTER PROBLEMS IN ELEMENT ASSEMBLY               0.2500    
     INCREASE FACTOR AFTER TWO INCREMENTS THAT CONVERGE QUICKLY        1.500    
     MAX. TIME INCREMENT INCREASE FACTOR ALLOWED                       1.500    
     MAX. TIME INCREMENT INCREASE FACTOR ALLOWED (DYNAMICS)            1.250    
     MAX. TIME INCREMENT INCREASE FACTOR ALLOWED (DIFFUSION)           2.000    
     MINIMUM TIME INCREMENT RATIO FOR EXTRAPOLATION TO OCCUR          0.1000    
     MAX. RATIO OF TIME INCREMENT TO STABILITY LIMIT                   1.000    
     FRACTION OF STABILITY LIMIT FOR NEW TIME INCREMENT               0.9500    
     TIME INCREMENT INCREASE FACTOR BEFORE A TIME POINT                1.000    
     GLOBAL STABILIZATION CONTROL IS NOT USED

          PRINT OF INCREMENT NUMBER, TIME, ETC., EVERY    1  INCREMENTS

     THE MAXIMUM NUMBER OF INCREMENTS IN THIS STEP IS                     100

          LARGE DISPLACEMENT THEORY WILL BE USED

     LINEAR EXTRAPOLATION WILL BE USED

     CHARACTERISTIC ELEMENT LENGTH     0.465    

     DETAILS REGARDING ACTUAL SOLUTION WAVEFRONT REQUESTED

     DETAILED OUTPUT OF DIAGNOSTICS TO DATABASE REQUESTED

     PRINT OF INCREMENT NUMBER, TIME, ETC., TO THE MESSAGE FILE EVERY     1  INCREMENTS

     COLLECTING MODEL CONSTRAINT INFORMATION FOR OVERCONSTRAINT CHECKS

     COLLECTING STEP CONSTRAINT INFORMATION FOR OVERCONSTRAINT CHECKS


  INCREMENT     1 STARTS. ATTEMPT NUMBER  1, TIME INCREMENT  0.140    
 
	SYMMETRIC NEW DIRECT SPARSE SOLVER RUNNING ON
 	1 HOST x 1 MPI RANK PER HOST x 1 THREAD PER RANK
        NUMBER OF EQUATIONS:  3023
        NUMBER OF RHS:        1
        NUMBER OF FLOPS:      3.852e+06
        SOLVER ELAPSED TIME:  9ms

               CONVERGENCE CHECKS FOR EQUILIBRIUM ITERATION     1


 AVERAGE FORCE                       173.       TIME AVG. FORCE        173.    
 LARGEST SCALED RESIDUAL FORCE      -658.       AT NODE         96   DOF  1
   INSTANCE: ELG Specimen 2024-1                                                             
  CORRESPONDING RESIDUAL FORCE      -658.    
 LARGEST INCREMENT OF DISP.         8.287E-02   AT NODE          1   DOF  2
   INSTANCE: {assembly node}                                                                 
 LARGEST CORRECTION TO DISP.        8.287E-02   AT NODE          1   DOF  2
   INSTANCE: {assembly node}                                                                 
          FORCE     EQUILIBRIUM NOT ACHIEVED WITHIN TOLERANCE.

 AVERAGE MOMENT                      0.00       TIME AVG. MOMENT       80.4    
                                                (FROM FORCE     FIELD)
 ALL MOMENT    RESIDUALS ARE ZERO
 LARGEST INCREMENT OF ROTATION     -1.642E-32   AT NODE          1   DOF  6
   INSTANCE: {assembly node}                                                                 
 LARGEST CORRECTION TO ROTATION    -1.642E-32   AT NODE          1   DOF  6
   INSTANCE: {assembly node}                                                                 
          THERE IS ZERO MOMENT    EVERYWHERE
 
	SYMMETRIC NEW DIRECT SPARSE SOLVER RUNNING ON
 	1 HOST x 1 MPI RANK PER HOST x 1 THREAD PER RANK
        NUMBER OF EQUATIONS:  3023
        NUMBER OF RHS:        1
        NUMBER OF FLOPS:      3.852e+06
        SOLVER ELAPSED TIME:  6ms

               CONVERGENCE CHECKS FOR EQUILIBRIUM ITERATION     2


 AVERAGE FORCE                       162.       TIME AVG. FORCE        162.    
 LARGEST SCALED RESIDUAL FORCE     -1.117E+03   AT NODE        346   DOF  1
   INSTANCE: ELG Specimen 2024-1                                                             
  CORRESPONDING RESIDUAL FORCE     -1.117E+03
 LARGEST INCREMENT OF DISP.          1.03       AT NODE          1   DOF  2
   INSTANCE: {assembly node}                                                                 
 LARGEST CORRECTION TO DISP.        0.949       AT NODE         84   DOF  2
   INSTANCE: ELG Specimen 2024-1                                                             
          FORCE     EQUILIBRIUM NOT ACHIEVED WITHIN TOLERANCE.

 AVERAGE MOMENT                      0.00       TIME AVG. MOMENT       75.2    
                                                (FROM FORCE     FIELD)
 ALL MOMENT    RESIDUALS ARE ZERO
 LARGEST INCREMENT OF ROTATION     -1.646E-32   AT NODE          1   DOF  6
   INSTANCE: {assembly node}                                                                 
 LARGEST CORRECTION TO ROTATION    -4.531E-35   AT NODE          1   DOF  6
   INSTANCE: {assembly node}                                                                 
          THERE IS ZERO MOMENT    EVERYWHERE
 
	SYMMETRIC NEW DIRECT SPARSE SOLVER RUNNING ON
 	1 HOST x 1 MPI RANK PER HOST x 1 THREAD PER RANK
        NUMBER OF EQUATIONS:  3023
        NUMBER OF RHS:        1
        NUMBER OF FLOPS:      3.852e+06
        SOLVER ELAPSED TIME:  6ms

 ***WARNING: THE STRAIN INCREMENT HAS EXCEEDED FIFTY TIMES THE STRAIN TO CAUSE 
             FIRST YIELD AT 685 POINTS

               CONVERGENCE CHECKS FOR EQUILIBRIUM ITERATION     3


 AVERAGE FORCE                       222.       TIME AVG. FORCE        222.    
 LARGEST SCALED RESIDUAL FORCE      1.639E+03   AT NODE        196   DOF  1
   INSTANCE: ELG Specimen 2024-1                                                             
  CORRESPONDING RESIDUAL FORCE      1.639E+03
 LARGEST INCREMENT OF DISP.          2.68       AT NODE          1   DOF  2
   INSTANCE: {assembly node}                                                                 
 LARGEST CORRECTION TO DISP.         1.65       AT NODE         81   DOF  2
   INSTANCE: ELG Specimen 2024-1                                                             
          FORCE     EQUILIBRIUM NOT ACHIEVED WITHIN TOLERANCE.

 AVERAGE MOMENT                      0.00       TIME AVG. MOMENT       103.    
                                                (FROM FORCE     FIELD)
 ALL MOMENT    RESIDUALS ARE ZERO
 LARGEST INCREMENT OF ROTATION     -1.646E-32   AT NODE          1   DOF  6
   INSTANCE: {assembly node}                                                                 
 LARGEST CORRECTION TO ROTATION     6.201E-36   AT NODE          1   DOF  6
   INSTANCE: {assembly node}                                                                 
          THERE IS ZERO MOMENT    EVERYWHERE
 
	SYMMETRIC NEW DIRECT SPARSE SOLVER RUNNING ON
 	1 HOST x 1 MPI RANK PER HOST x 1 THREAD PER RANK
        NUMBER OF EQUATIONS:  3023
        NUMBER OF RHS:        1
        NUMBER OF FLOPS:      3.852e+06
        SOLVER ELAPSED TIME:  5ms

 ***WARNING: THE STRAIN INCREMENT HAS EXCEEDED FIFTY TIMES THE STRAIN TO CAUSE 
             FIRST YIELD AT 689 POINTS

               CONVERGENCE CHECKS FOR EQUILIBRIUM ITERATION     4


 AVERAGE FORCE                       190.       TIME AVG. FORCE        190.    
 LARGEST SCALED RESIDUAL FORCE       56.9       AT NODE        344   DOF  2
   INSTANCE: ELG Specimen 2024-1                                                             
  CORRESPONDING RESIDUAL FORCE       56.9    
 LARGEST INCREMENT OF DISP.          2.90       AT NODE          1   DOF  2
   INSTANCE: {assembly node}                                                                 
 LARGEST CORRECTION TO DISP.        0.220       AT NODE        103   DOF  2
   INSTANCE: ELG Specimen 2024-1                                                             
          FORCE     EQUILIBRIUM NOT ACHIEVED WITHIN TOLERANCE.

 AVERAGE MOMENT                      0.00       TIME AVG. MOMENT       88.3    
                                                (FROM FORCE     FIELD)
 ALL MOMENT    RESIDUALS ARE ZERO
 LARGEST INCREMENT OF ROTATION     -1.645E-32   AT NODE          1   DOF  6
   INSTANCE: {assembly node}                                                                 
 LARGEST CORRECTION TO ROTATION     3.283E-36   AT NODE          1   DOF  6
   INSTANCE: {assembly node}                                                                 
          THERE IS ZERO MOMENT    EVERYWHERE
 
	SYMMETRIC NEW DIRECT SPARSE SOLVER RUNNING ON
 	1 HOST x 1 MPI RANK PER HOST x 1 THREAD PER RANK
        NUMBER OF EQUATIONS:  3023
        NUMBER OF RHS:        1
        NUMBER OF FLOPS:      3.852e+06
        SOLVER ELAPSED TIME:  7ms

 ***WARNING: THE STRAIN INCREMENT HAS EXCEEDED FIFTY TIMES THE STRAIN TO CAUSE 
             FIRST YIELD AT 690 POINTS

               CONVERGENCE CHECKS FOR EQUILIBRIUM ITERATION     5


 AVERAGE FORCE                       190.       TIME AVG. FORCE        190.    
 LARGEST SCALED RESIDUAL FORCE      -2.35       AT NODE        344   DOF  1
   INSTANCE: ELG Specimen 2024-1                                                             
  CORRESPONDING RESIDUAL FORCE      -2.35    
 LARGEST INCREMENT OF DISP.          2.92       AT NODE          1   DOF  2
   INSTANCE: {assembly node}                                                                 
 LARGEST CORRECTION TO DISP.        1.998E-02   AT NODE         83   DOF  2
   INSTANCE: ELG Specimen 2024-1                                                             
          FORCE     EQUILIBRIUM NOT ACHIEVED WITHIN TOLERANCE.

 AVERAGE MOMENT                      0.00       TIME AVG. MOMENT       88.3    
                                                (FROM FORCE     FIELD)
 ALL MOMENT    RESIDUALS ARE ZERO
 LARGEST INCREMENT OF ROTATION     -1.645E-32   AT NODE          1   DOF  6
   INSTANCE: {assembly node}                                                                 
 LARGEST CORRECTION TO ROTATION     8.008E-37   AT NODE          1   DOF  6
   INSTANCE: {assembly node}                                                                 
          THERE IS ZERO MOMENT    EVERYWHERE
 
	SYMMETRIC NEW DIRECT SPARSE SOLVER RUNNING ON
 	1 HOST x 1 MPI RANK PER HOST x 1 THREAD PER RANK
        NUMBER OF EQUATIONS:  3023
        NUMBER OF RHS:        1
        NUMBER OF FLOPS:      3.852e+06
        SOLVER ELAPSED TIME:  6ms

 ***WARNING: THE STRAIN INCREMENT HAS EXCEEDED FIFTY TIMES THE STRAIN TO CAUSE 
             FIRST YIELD AT 690 POINTS

               CONVERGENCE CHECKS FOR EQUILIBRIUM ITERATION     6


 AVERAGE FORCE                       190.       TIME AVG. FORCE        190.    
 LARGEST SCALED RESIDUAL FORCE     -2.619E-02   AT NODE         97   DOF  2
   INSTANCE: ELG Specimen 2024-1                                                             
  CORRESPONDING RESIDUAL FORCE     -2.619E-02
 LARGEST INCREMENT OF DISP.          2.92       AT NODE          1   DOF  2
   INSTANCE: {assembly node}                                                                 
 LARGEST CORRECTION TO DISP.       -5.876E-05   AT NODE        109   DOF  2
   INSTANCE: ELG Specimen 2024-1                                                             
          THE FORCE     EQUILIBRIUM EQUATIONS HAVE CONVERGED

 AVERAGE MOMENT                      0.00       TIME AVG. MOMENT       88.3    
                                                (FROM FORCE     FIELD)
 ALL MOMENT    RESIDUALS ARE ZERO
 LARGEST INCREMENT OF ROTATION     -1.645E-32   AT NODE          1   DOF  6
   INSTANCE: {assembly node}                                                                 
 LARGEST CORRECTION TO ROTATION     5.439E-38   AT NODE          1   DOF  6
   INSTANCE: {assembly node}                                                                 
          THERE IS ZERO MOMENT    EVERYWHERE

 ITERATION SUMMARY FOR THE INCREMENT:   6 TOTAL ITERATIONS, OF WHICH
   0 ARE SEVERE DISCONTINUITY ITERATIONS AND  6 ARE EQUILIBRIUM ITERATIONS.

 TIME INCREMENT COMPLETED  0.140    ,  FRACTION OF STEP COMPLETED   1.00    
 STEP TIME COMPLETED       0.140    ,  TOTAL TIME COMPLETED        0.140    
1

   Abaqus 2024                                  Date 20-Mar-2025   Time 15:16:26
   For use by UNIVERSITY OF BRISTOL under license from Dassault Systemes or its subsidiary.

                                                                                 
                                                                                 
 STEP    2     INCREMENT     1     STEP TIME    0.00    


                        S T E P       2     V I S C O   A N A L Y S I S


                                                                                          

     AUTOMATIC TIME CONTROL WITH -
          A SUGGESTED INITIAL TIME INCREMENT OF                1.000E-06
          AND A TOTAL TIME PERIOD OF                            200.    
          THE MINIMUM TIME INCREMENT ALLOWED IS                1.000E-09
          THE MAXIMUM TIME INCREMENT ALLOWED IS                 200.    

     THE SIZE OF THE TIME INCREMENT IS CONTROLLED BY -
          THE PARAMETER  CETOL                                 1.000E-05

                              IMPLICIT TIME INTEGRATION WILL BE USED

 CONVERGENCE TOLERANCE PARAMETERS FOR FORCE    
     CRITERION FOR RESIDUAL FORCE     FOR A NONLINEAR PROBLEM          5.000E-03
     CRITERION FOR DISP.    CORRECTION IN A NONLINEAR PROBLEM          1.000E-02
     INIT. VALUE OF TIME AVG. FORCE     IS TIME AVG. FORCE     IN PREVIOUS STEP
     AVERAGE FORCE     IS TIME AVERAGE FORCE    
     ALTERNATE CRIT. FOR RESIDUAL FORCE     FOR A NONLINEAR PROBLEM    2.000E-02
     CRITERION FOR ZERO FORCE     RELATIVE TO TIME AVRG. FORCE         1.000E-05
     CRITERION FOR RESIDUAL FORCE     WHEN THERE IS ZERO FLUX          1.000E-05
     CRITERION FOR DISP.    CORRECTION WHEN THERE IS ZERO FLUX         1.000E-03
     CRITERION FOR RESIDUAL FORCE     FOR A LINEAR INCREMENT           1.000E-08
     FIELD CONVERSION RATIO                                             1.00    
     CRITERION FOR ZERO FORCE     REL. TO TIME AVRG. MAX. FORCE        1.000E-05
     CRITERION FOR ZERO DISP.    RELATIVE TO CHARACTERISTIC LENGTH     1.000E-08

 CONVERGENCE TOLERANCE PARAMETERS FOR MOMENT   
     CRITERION FOR RESIDUAL MOMENT    FOR A NONLINEAR PROBLEM          5.000E-03
     CRITERION FOR ROTATION CORRECTION IN A NONLINEAR PROBLEM          1.000E-02
     INIT. VALUE OF TIME AVG. MOMENT    IS TIME AVG. MOMENT    IN PREVIOUS STEP
     AVERAGE MOMENT    IS TIME AVERAGE MOMENT   
     ALTERNATE CRIT. FOR RESIDUAL MOMENT    FOR A NONLINEAR PROBLEM    2.000E-02
     CRITERION FOR ZERO MOMENT    RELATIVE TO TIME AVRG. MOMENT        1.000E-05
     CRITERION FOR RESIDUAL MOMENT    WHEN THERE IS ZERO FLUX          1.000E-05
     CRITERION FOR ROTATION CORRECTION WHEN THERE IS ZERO FLUX         1.000E-03
     CRITERION FOR RESIDUAL MOMENT    FOR A LINEAR INCREMENT           1.000E-08
     FIELD CONVERSION RATIO                                             1.00    
     CRITERION FOR ZERO MOMENT    REL. TO TIME AVRG. MAX. MOMENT       1.000E-05

     VOLUMETRIC STRAIN COMPATIBILITY TOLERANCE FOR HYBRID SOLIDS       1.000E-05
     AXIAL STRAIN COMPATIBILITY TOLERANCE FOR HYBRID BEAMS             1.000E-05
     TRANS. SHEAR STRAIN COMPATIBILITY TOLERANCE FOR HYBRID BEAMS      1.000E-05
     SOFT CONTACT CONSTRAINT COMPATIBILITY TOLERANCE FOR P>P0          5.000E-03
     SOFT CONTACT CONSTRAINT COMPATIBILITY TOLERANCE FOR P=0.0         0.100    
     CONTACT FORCE ERROR TOLERANCE FOR CONVERT SDI=YES                 1.00    
     DISPLACEMENT COMPATIBILITY TOLERANCE FOR DCOUP ELEMENTS           1.000E-05
     ROTATION COMPATIBILITY TOLERANCE FOR DCOUP ELEMENTS               1.000E-05

 EQUILIBRIUM WILL BE CHECKED FOR SEVERE DISCONTINUITY ITERATIONS

 TIME INCREMENTATION CONTROL PARAMETERS:
     FIRST EQUILIBRIUM ITERATION FOR CONSECUTIVE DIVERGENCE CHECK              4
     EQUILIBRIUM ITERATION AT WHICH LOG. CONVERGENCE RATE CHECK BEGINS         8
     EQUILIBRIUM ITERATION AFTER WHICH ALTERNATE RESIDUAL IS USED              9
     MAXIMUM EQUILIBRIUM ITERATIONS ALLOWED                                   16
     EQUILIBRIUM ITERATION COUNT FOR CUT-BACK IN NEXT INCREMENT               10
     MAXIMUM EQUILIB. ITERS IN TWO INCREMENTS FOR TIME INCREMENT INCREASE      4
     MAXIMUM ITERATIONS FOR SEVERE DISCONTINUITIES                            50
     MAXIMUM ATTEMPTS ALLOWED IN AN INCREMENT                                  5
     MAXIMUM DISCON. ITERS IN TWO INCREMENTS FOR TIME INCREMENT INCREASE      50
     MAXIMUM CONTACT AUGMENTATIONS FOR *SURFACE BEHAVIOR,AUGMENTED LAGRANGE   50
     CONSECUTIVE INCS MEETING TIME INTEG. TOL. FOR TIME INC. INCREASE          3
     CUT-BACK FACTOR AFTER DIVERGENCE                                 0.2500    
     CUT-BACK FACTOR FOR TOO SLOW CONVERGENCE                         0.5000    
     CUT-BACK FACTOR AFTER TOO MANY EQUILIBRIUM ITERATIONS            0.7500    
     CUT-BACK FACTOR AFTER TOO MANY SEVERE DISCONTINUITY ITERATIONS   0.2500    
     CUT-BACK FACTOR AFTER PROBLEMS IN ELEMENT ASSEMBLY               0.2500    
     INCREASE FACTOR AFTER TWO INCREMENTS THAT CONVERGE QUICKLY        1.500    
     MAX. TIME INCREMENT INCREASE FACTOR ALLOWED                       1.500    
     MAX. TIME INCREMENT INCREASE FACTOR ALLOWED (DYNAMICS)            1.250    
     MAX. TIME INCREMENT INCREASE FACTOR ALLOWED (DIFFUSION)           2.000    
     MINIMUM TIME INCREMENT RATIO FOR EXTRAPOLATION TO OCCUR          0.1000    
     CUT-BACK FACTOR WHEN TIME INTEGRATION ACCURACY TOL. EXCEEDED     0.8500    
     MAX. RATIO OF TIME INTEG. MEASURE TO TOL. FOR TIME INC. INCREASE 0.7500    
     INCREASE FACTOR FOR TIME INCREMENT WHEN POSSIBLE                 0.8000    
     MIN. TIME INC. INCREASE FACTOR IN LINEAR TRANSIENT PROBLEMS      0.9500    
     MAX. RATIO OF TIME INCREMENT TO STABILITY LIMIT                   1.000    
     FRACTION OF STABILITY LIMIT FOR NEW TIME INCREMENT               0.9500    
     TIME INCREMENT INCREASE FACTOR BEFORE A TIME POINT                1.000    
     GLOBAL STABILIZATION CONTROL IS NOT USED

          PRINT OF INCREMENT NUMBER, TIME, ETC., EVERY    1  INCREMENTS

     THE MAXIMUM NUMBER OF INCREMENTS IN THIS STEP IS                 9999999

          LARGE DISPLACEMENT THEORY WILL BE USED

     LINEAR EXTRAPOLATION WILL BE USED

     CHARACTERISTIC ELEMENT LENGTH     0.465    

     DETAILS REGARDING ACTUAL SOLUTION WAVEFRONT REQUESTED

     DETAILED OUTPUT OF DIAGNOSTICS TO DATABASE REQUESTED

     PRINT OF INCREMENT NUMBER, TIME, ETC., TO THE MESSAGE FILE EVERY     1  INCREMENTS

     COLLECTING STEP CONSTRAINT INFORMATION FOR OVERCONSTRAINT CHECKS


  INCREMENT     1 STARTS. ATTEMPT NUMBER  1, TIME INCREMENT  1.000E-06
 
	SYMMETRIC NEW DIRECT SPARSE SOLVER RUNNING ON
 	1 HOST x 1 MPI RANK PER HOST x 1 THREAD PER RANK
        NUMBER OF EQUATIONS:  3023
        NUMBER OF RHS:        1
        NUMBER OF FLOPS:      3.852e+06
        SOLVER ELAPSED TIME:  8ms

               CONVERGENCE CHECKS FOR EQUILIBRIUM ITERATION     1


 AVERAGE FORCE                       294.       TIME AVG. FORCE        294.    
 LARGEST SCALED RESIDUAL FORCE     -6.514E-03   AT NODE         98   DOF  1
   INSTANCE: ELG Specimen 2024-1                                                             
  CORRESPONDING RESIDUAL FORCE     -6.514E-03
 LARGEST INCREMENT OF DISP.        -6.917E-08   AT NODE         98   DOF  2
   INSTANCE: ELG Specimen 2024-1                                                             
 LARGEST CORRECTION TO DISP.       -6.917E-08   AT NODE         98   DOF  2
   INSTANCE: ELG Specimen 2024-1                                                             
          DISP.    CORRECTION TOO LARGE COMPARED TO DISP.    INCREMENT

 AVERAGE MOMENT                      0.00       TIME AVG. MOMENT       137.    
                                                (FROM FORCE     FIELD)
 ALL MOMENT    RESIDUALS ARE ZERO
 LARGEST INCREMENT OF ROTATION     -1.645E-32   AT NODE          1   DOF  6
   INSTANCE: {assembly node}                                                                 
 LARGEST CORRECTION TO ROTATION    -1.645E-32   AT NODE          1   DOF  6
   INSTANCE: {assembly node}                                                                 
          THERE IS ZERO MOMENT    EVERYWHERE
 
	SYMMETRIC NEW DIRECT SPARSE SOLVER RUNNING ON
 	1 HOST x 1 MPI RANK PER HOST x 1 THREAD PER RANK
        NUMBER OF EQUATIONS:  3023
        NUMBER OF RHS:        1
        NUMBER OF FLOPS:      3.852e+06
        SOLVER ELAPSED TIME:  7ms

               CONVERGENCE CHECKS FOR EQUILIBRIUM ITERATION     2


 AVERAGE FORCE                       294.       TIME AVG. FORCE        294.    
 LARGEST SCALED RESIDUAL FORCE      2.138E-03   AT NODE        615   DOF  1
   INSTANCE: ELG Specimen 2024-1                                                             
  CORRESPONDING RESIDUAL FORCE      2.138E-03
 LARGEST INCREMENT OF DISP.        -5.509E-08   AT NODE         98   DOF  2
   INSTANCE: ELG Specimen 2024-1                                                             
 LARGEST CORRECTION TO DISP.        2.371E-08   AT NODE         99   DOF  2
   INSTANCE: ELG Specimen 2024-1                                                             
          DISP.    CORRECTION TOO LARGE COMPARED TO DISP.    INCREMENT

 AVERAGE MOMENT                      0.00       TIME AVG. MOMENT       137.    
                                                (FROM FORCE     FIELD)
 ALL MOMENT    RESIDUALS ARE ZERO
 LARGEST INCREMENT OF ROTATION     -1.645E-32   AT NODE          1   DOF  6
   INSTANCE: {assembly node}                                                                 
 LARGEST CORRECTION TO ROTATION    -3.275E-42   AT NODE          1   DOF  6
   INSTANCE: {assembly node}                                                                 
          THERE IS ZERO MOMENT    EVERYWHERE
 
	SYMMETRIC NEW DIRECT SPARSE SOLVER RUNNING ON
 	1 HOST x 1 MPI RANK PER HOST x 1 THREAD PER RANK
        NUMBER OF EQUATIONS:  3023
        NUMBER OF RHS:        1
        NUMBER OF FLOPS:      3.852e+06
        SOLVER ELAPSED TIME:  7ms

               CONVERGENCE CHECKS FOR EQUILIBRIUM ITERATION     3


 AVERAGE FORCE                       294.       TIME AVG. FORCE        294.    
 LARGEST SCALED RESIDUAL FORCE     -1.376E-03   AT NODE        597   DOF  2
   INSTANCE: ELG Specimen 2024-1                                                             
  CORRESPONDING RESIDUAL FORCE     -1.376E-03
 LARGEST INCREMENT OF DISP.        -3.591E-08   AT NODE         98   DOF  2
   INSTANCE: ELG Specimen 2024-1                                                             
 LARGEST CORRECTION TO DISP.        2.163E-08   AT NODE        623   DOF  2
   INSTANCE: ELG Specimen 2024-1                                                             
          DISP.    CORRECTION TOO LARGE COMPARED TO DISP.    INCREMENT

 AVERAGE MOMENT                      0.00       TIME AVG. MOMENT       137.    
                                                (FROM FORCE     FIELD)
 ALL MOMENT    RESIDUALS ARE ZERO
 LARGEST INCREMENT OF ROTATION     -1.645E-32   AT NODE          1   DOF  6
   INSTANCE: {assembly node}                                                                 
 LARGEST CORRECTION TO ROTATION     1.264E-41   AT NODE          1   DOF  6
   INSTANCE: {assembly node}                                                                 
          THERE IS ZERO MOMENT    EVERYWHERE
 
	SYMMETRIC NEW DIRECT SPARSE SOLVER RUNNING ON
 	1 HOST x 1 MPI RANK PER HOST x 1 THREAD PER RANK
        NUMBER OF EQUATIONS:  3023
        NUMBER OF RHS:        1
        NUMBER OF FLOPS:      3.852e+06
        SOLVER ELAPSED TIME:  10ms

               CONVERGENCE CHECKS FOR EQUILIBRIUM ITERATION     4


 AVERAGE FORCE                       294.       TIME AVG. FORCE        294.    
 LARGEST SCALED RESIDUAL FORCE     -7.206E-04   AT NODE       1514   DOF  1
   INSTANCE: ELG Specimen 2024-1                                                             
  CORRESPONDING RESIDUAL FORCE     -7.206E-04
 LARGEST INCREMENT OF DISP.         3.946E-08   AT NODE       1450   DOF  2
   INSTANCE: ELG Specimen 2024-1                                                             
 LARGEST CORRECTION TO DISP.        1.388E-08   AT NODE        104   DOF  2
   INSTANCE: ELG Specimen 2024-1                                                             
          DISP.    CORRECTION TOO LARGE COMPARED TO DISP.    INCREMENT

 AVERAGE MOMENT                      0.00       TIME AVG. MOMENT       137.    
                                                (FROM FORCE     FIELD)
 ALL MOMENT    RESIDUALS ARE ZERO
 LARGEST INCREMENT OF ROTATION     -1.645E-32   AT NODE          1   DOF  6
   INSTANCE: {assembly node}                                                                 
 LARGEST CORRECTION TO ROTATION    -3.039E-42   AT NODE          1   DOF  6
   INSTANCE: {assembly node}                                                                 
          THERE IS ZERO MOMENT    EVERYWHERE
 
	SYMMETRIC NEW DIRECT SPARSE SOLVER RUNNING ON
 	1 HOST x 1 MPI RANK PER HOST x 1 THREAD PER RANK
        NUMBER OF EQUATIONS:  3023
        NUMBER OF RHS:        1
        NUMBER OF FLOPS:      3.852e+06
        SOLVER ELAPSED TIME:  7ms

               CONVERGENCE CHECKS FOR EQUILIBRIUM ITERATION     5


 AVERAGE FORCE                       294.       TIME AVG. FORCE        294.    
 LARGEST SCALED RESIDUAL FORCE     -7.244E-04   AT NODE        632   DOF  1
   INSTANCE: ELG Specimen 2024-1                                                             
  CORRESPONDING RESIDUAL FORCE     -7.244E-04
 LARGEST INCREMENT OF DISP.         4.167E-08   AT NODE       1450   DOF  2
   INSTANCE: ELG Specimen 2024-1                                                             
 LARGEST CORRECTION TO DISP.        4.752E-09   AT NODE        339   DOF  2
   INSTANCE: ELG Specimen 2024-1                                                             
          DISP.    CORRECTION TOO LARGE COMPARED TO DISP.    INCREMENT

 AVERAGE MOMENT                      0.00       TIME AVG. MOMENT       137.    
                                                (FROM FORCE     FIELD)
 ALL MOMENT    RESIDUALS ARE ZERO
 LARGEST INCREMENT OF ROTATION     -1.645E-32   AT NODE          1   DOF  6
   INSTANCE: {assembly node}                                                                 
 LARGEST CORRECTION TO ROTATION     5.749E-43   AT NODE          1   DOF  6
   INSTANCE: {assembly node}                                                                 
          THERE IS ZERO MOMENT    EVERYWHERE
 
	SYMMETRIC NEW DIRECT SPARSE SOLVER RUNNING ON
 	1 HOST x 1 MPI RANK PER HOST x 1 THREAD PER RANK
        NUMBER OF EQUATIONS:  3023
        NUMBER OF RHS:        1
        NUMBER OF FLOPS:      3.852e+06
        SOLVER ELAPSED TIME:  8ms

               CONVERGENCE CHECKS FOR EQUILIBRIUM ITERATION     6


 AVERAGE FORCE                       294.       TIME AVG. FORCE        294.    
 LARGEST SCALED RESIDUAL FORCE     -6.241E-04   AT NODE        623   DOF  1
   INSTANCE: ELG Specimen 2024-1                                                             
  CORRESPONDING RESIDUAL FORCE     -6.241E-04
 LARGEST INCREMENT OF DISP.         4.221E-08   AT NODE       1450   DOF  2
   INSTANCE: ELG Specimen 2024-1                                                             
 LARGEST CORRECTION TO DISP.        2.252E-09   AT NODE        640   DOF  2
   INSTANCE: ELG Specimen 2024-1                                                             
          DISP.    CORRECTION TOO LARGE COMPARED TO DISP.    INCREMENT

 AVERAGE MOMENT                      0.00       TIME AVG. MOMENT       137.    
                                                (FROM FORCE     FIELD)
 ALL MOMENT    RESIDUALS ARE ZERO
 LARGEST INCREMENT OF ROTATION     -1.645E-32   AT NODE          1   DOF  6
   INSTANCE: {assembly node}                                                                 
 LARGEST CORRECTION TO ROTATION    -1.642E-42   AT NODE          1   DOF  6
   INSTANCE: {assembly node}                                                                 
          THERE IS ZERO MOMENT    EVERYWHERE
 
	SYMMETRIC NEW DIRECT SPARSE SOLVER RUNNING ON
 	1 HOST x 1 MPI RANK PER HOST x 1 THREAD PER RANK
        NUMBER OF EQUATIONS:  3023
        NUMBER OF RHS:        1
        NUMBER OF FLOPS:      3.852e+06
        SOLVER ELAPSED TIME:  7ms

               CONVERGENCE CHECKS FOR EQUILIBRIUM ITERATION     7


 AVERAGE FORCE                       294.       TIME AVG. FORCE        294.    
 LARGEST SCALED RESIDUAL FORCE     -4.823E-04   AT NODE        630   DOF  1
   INSTANCE: ELG Specimen 2024-1                                                             
  CORRESPONDING RESIDUAL FORCE     -4.823E-04
 LARGEST INCREMENT OF DISP.         4.283E-08   AT NODE       1450   DOF  2
   INSTANCE: ELG Specimen 2024-1                                                             
 LARGEST CORRECTION TO DISP.        1.713E-09   AT NODE        631   DOF  2
   INSTANCE: ELG Specimen 2024-1                                                             
          DISP.    CORRECTION TOO LARGE COMPARED TO DISP.    INCREMENT

 AVERAGE MOMENT                      0.00       TIME AVG. MOMENT       137.    
                                                (FROM FORCE     FIELD)
 ALL MOMENT    RESIDUALS ARE ZERO
 LARGEST INCREMENT OF ROTATION     -1.645E-32   AT NODE          1   DOF  6
   INSTANCE: {assembly node}                                                                 
 LARGEST CORRECTION TO ROTATION     1.216E-43   AT NODE          1   DOF  6
   INSTANCE: {assembly node}                                                                 
          THERE IS ZERO MOMENT    EVERYWHERE
 
	SYMMETRIC NEW DIRECT SPARSE SOLVER RUNNING ON
 	1 HOST x 1 MPI RANK PER HOST x 1 THREAD PER RANK
        NUMBER OF EQUATIONS:  3023
        NUMBER OF RHS:        1
        NUMBER OF FLOPS:      3.852e+06
        SOLVER ELAPSED TIME:  6ms

               CONVERGENCE CHECKS FOR EQUILIBRIUM ITERATION     8


 AVERAGE FORCE                       294.       TIME AVG. FORCE        294.    
 LARGEST SCALED RESIDUAL FORCE      3.796E-04   AT NODE        637   DOF  2
   INSTANCE: ELG Specimen 2024-1                                                             
  CORRESPONDING RESIDUAL FORCE      3.796E-04
 LARGEST INCREMENT OF DISP.         4.313E-08   AT NODE       1450   DOF  2
   INSTANCE: ELG Specimen 2024-1                                                             
 LARGEST CORRECTION TO DISP.        1.050E-09   AT NODE        638   DOF  2
   INSTANCE: ELG Specimen 2024-1                                                             
          DISP.    CORRECTION TOO LARGE COMPARED TO DISP.    INCREMENT

 AVERAGE MOMENT                      0.00       TIME AVG. MOMENT       137.    
                                                (FROM FORCE     FIELD)
 ALL MOMENT    RESIDUALS ARE ZERO
 LARGEST INCREMENT OF ROTATION     -1.645E-32   AT NODE          1   DOF  6
   INSTANCE: {assembly node}                                                                 
 LARGEST CORRECTION TO ROTATION     1.768E-42   AT NODE          1   DOF  6
   INSTANCE: {assembly node}                                                                 
          THERE IS ZERO MOMENT    EVERYWHERE
 
	SYMMETRIC NEW DIRECT SPARSE SOLVER RUNNING ON
 	1 HOST x 1 MPI RANK PER HOST x 1 THREAD PER RANK
        NUMBER OF EQUATIONS:  3023
        NUMBER OF RHS:        1
        NUMBER OF FLOPS:      3.852e+06
        SOLVER ELAPSED TIME:  10ms

               CONVERGENCE CHECKS FOR EQUILIBRIUM ITERATION     9


 AVERAGE FORCE                       294.       TIME AVG. FORCE        294.    
 LARGEST SCALED RESIDUAL FORCE      5.280E-05   AT NODE       1433   DOF  1
   INSTANCE: ELG Specimen 2024-1                                                             
  CORRESPONDING RESIDUAL FORCE      5.280E-05
 LARGEST INCREMENT OF DISP.         4.313E-08   AT NODE       1450   DOF  2
   INSTANCE: ELG Specimen 2024-1                                                             
 LARGEST CORRECTION TO DISP.        1.055E-09   AT NODE        637   DOF  2
   INSTANCE: ELG Specimen 2024-1                                                             
 ESTIMATE OF DISP.    CORRECTION    1.468E-10
 FORCE     EQUILIB. ACCEPTED BASED ON SMALL RESIDUAL AND ESTIMATED CORRECTION

 AVERAGE MOMENT                      0.00       TIME AVG. MOMENT       137.    
                                                (FROM FORCE     FIELD)
 ALL MOMENT    RESIDUALS ARE ZERO
 LARGEST INCREMENT OF ROTATION     -1.645E-32   AT NODE          1   DOF  6
   INSTANCE: {assembly node}                                                                 
 LARGEST CORRECTION TO ROTATION     5.050E-43   AT NODE          1   DOF  6
   INSTANCE: {assembly node}                                                                 
          THERE IS ZERO MOMENT    EVERYWHERE

 MAXIMUM DIFFERENCE IN CREEP STRAIN INCREMENT IS   2.287E-15

 ITERATION SUMMARY FOR THE INCREMENT:   9 TOTAL ITERATIONS, OF WHICH
   0 ARE SEVERE DISCONTINUITY ITERATIONS AND  9 ARE EQUILIBRIUM ITERATIONS.

 TIME INCREMENT COMPLETED  1.000E-06,  FRACTION OF STEP COMPLETED  5.000E-09
 STEP TIME COMPLETED       1.000E-06,  TOTAL TIME COMPLETED        0.140    


  INCREMENT     2 STARTS. ATTEMPT NUMBER  1, TIME INCREMENT  1.000E-06
 
	SYMMETRIC NEW DIRECT SPARSE SOLVER RUNNING ON
 	1 HOST x 1 MPI RANK PER HOST x 1 THREAD PER RANK
        NUMBER OF EQUATIONS:  3023
        NUMBER OF RHS:        1
        NUMBER OF FLOPS:      3.852e+06
        SOLVER ELAPSED TIME:  5ms

               CONVERGENCE CHECKS FOR EQUILIBRIUM ITERATION     1


 AVERAGE FORCE                       294.       TIME AVG. FORCE        294.    
 LARGEST SCALED RESIDUAL FORCE     -6.130E-04   AT NODE       1458   DOF  2
   INSTANCE: ELG Specimen 2024-1                                                             
  CORRESPONDING RESIDUAL FORCE     -6.130E-04
 LARGEST INCREMENT OF DISP.         9.896E-09   AT NODE        643   DOF  2
   INSTANCE: ELG Specimen 2024-1                                                             
 LARGEST CORRECTION TO DISP.       -4.179E-08   AT NODE       1450   DOF  2
   INSTANCE: ELG Specimen 2024-1                                                             
          DISP.    CORRECTION TOO LARGE COMPARED TO DISP.    INCREMENT

 AVERAGE MOMENT                      0.00       TIME AVG. MOMENT       137.    
                                                (FROM FORCE     FIELD)
 ALL MOMENT    RESIDUALS ARE ZERO
 LARGEST INCREMENT OF ROTATION     -1.645E-32   AT NODE          1   DOF  6
   INSTANCE: {assembly node}                                                                 
 LARGEST CORRECTION TO ROTATION    -2.709E-42   AT NODE          1   DOF  6
   INSTANCE: {assembly node}                                                                 
          THERE IS ZERO MOMENT    EVERYWHERE
 
	SYMMETRIC NEW DIRECT SPARSE SOLVER RUNNING ON
 	1 HOST x 1 MPI RANK PER HOST x 1 THREAD PER RANK
        NUMBER OF EQUATIONS:  3023
        NUMBER OF RHS:        1
        NUMBER OF FLOPS:      3.852e+06
        SOLVER ELAPSED TIME:  6ms

               CONVERGENCE CHECKS FOR EQUILIBRIUM ITERATION     2


 AVERAGE FORCE                       294.       TIME AVG. FORCE        294.    
 LARGEST SCALED RESIDUAL FORCE      8.802E-05   AT NODE       1510   DOF  2
   INSTANCE: ELG Specimen 2024-1                                                             
  CORRESPONDING RESIDUAL FORCE      8.802E-05
 LARGEST INCREMENT OF DISP.         7.818E-09   AT NODE        104   DOF  2
   INSTANCE: ELG Specimen 2024-1                                                             
 LARGEST CORRECTION TO DISP.       -2.122E-09   AT NODE        636   DOF  2
   INSTANCE: ELG Specimen 2024-1                                                             
          DISP.    CORRECTION TOO LARGE COMPARED TO DISP.    INCREMENT

 AVERAGE MOMENT                      0.00       TIME AVG. MOMENT       137.    
                                                (FROM FORCE     FIELD)
 ALL MOMENT    RESIDUALS ARE ZERO
 LARGEST INCREMENT OF ROTATION     -1.645E-32   AT NODE          1   DOF  6
   INSTANCE: {assembly node}                                                                 
 LARGEST CORRECTION TO ROTATION    -3.364E-42   AT NODE          1   DOF  6
   INSTANCE: {assembly node}                                                                 
          THERE IS ZERO MOMENT    EVERYWHERE
 
	SYMMETRIC NEW DIRECT SPARSE SOLVER RUNNING ON
 	1 HOST x 1 MPI RANK PER HOST x 1 THREAD PER RANK
        NUMBER OF EQUATIONS:  3023
        NUMBER OF RHS:        1
        NUMBER OF FLOPS:      3.852e+06
        SOLVER ELAPSED TIME:  8ms

               CONVERGENCE CHECKS FOR EQUILIBRIUM ITERATION     3


 AVERAGE FORCE                       294.       TIME AVG. FORCE        294.    
 LARGEST SCALED RESIDUAL FORCE      4.640E-08   AT NODE       1502   DOF  2
   INSTANCE: ELG Specimen 2024-1                                                             
  CORRESPONDING RESIDUAL FORCE      4.640E-08
 LARGEST INCREMENT OF DISP.         7.802E-09   AT NODE        104   DOF  2
   INSTANCE: ELG Specimen 2024-1                                                             
 LARGEST CORRECTION TO DISP.       -1.034E-10   AT NODE        339   DOF  2
   INSTANCE: ELG Specimen 2024-1                                                             
          THE FORCE     EQUILIBRIUM EQUATIONS HAVE CONVERGED

 AVERAGE MOMENT                      0.00       TIME AVG. MOMENT       137.    
                                                (FROM FORCE     FIELD)
 ALL MOMENT    RESIDUALS ARE ZERO
 LARGEST INCREMENT OF ROTATION     -1.645E-32   AT NODE          1   DOF  6
   INSTANCE: {assembly node}                                                                 
 LARGEST CORRECTION TO ROTATION     1.454E-43   AT NODE          1   DOF  6
   INSTANCE: {assembly node}                                                                 
          THERE IS ZERO MOMENT    EVERYWHERE

 MAXIMUM DIFFERENCE IN CREEP STRAIN INCREMENT IS   6.709E-16

 ITERATION SUMMARY FOR THE INCREMENT:   3 TOTAL ITERATIONS, OF WHICH
   0 ARE SEVERE DISCONTINUITY ITERATIONS AND  3 ARE EQUILIBRIUM ITERATIONS.

 TIME INCREMENT COMPLETED  1.000E-06,  FRACTION OF STEP COMPLETED  1.000E-08
 STEP TIME COMPLETED       2.000E-06,  TOTAL TIME COMPLETED        0.140    


  INCREMENT     3 STARTS. ATTEMPT NUMBER  1, TIME INCREMENT  1.000E-06
 
	SYMMETRIC NEW DIRECT SPARSE SOLVER RUNNING ON
 	1 HOST x 1 MPI RANK PER HOST x 1 THREAD PER RANK
        NUMBER OF EQUATIONS:  3023
        NUMBER OF RHS:        1
        NUMBER OF FLOPS:      3.852e+06
        SOLVER ELAPSED TIME:  6ms

               CONVERGENCE CHECKS FOR EQUILIBRIUM ITERATION     1


 AVERAGE FORCE                       294.       TIME AVG. FORCE        294.    
 LARGEST SCALED RESIDUAL FORCE      1.050E-06   AT NODE        352   DOF  1
   INSTANCE: ELG Specimen 2024-1                                                             
  CORRESPONDING RESIDUAL FORCE      1.050E-06
 LARGEST INCREMENT OF DISP.         7.057E-09   AT NODE          1   DOF  2
   INSTANCE: {assembly node}                                                                 
 LARGEST CORRECTION TO DISP.       -1.018E-09   AT NODE       1385   DOF  2
   INSTANCE: ELG Specimen 2024-1                                                             
          THE FORCE     EQUILIBRIUM RESPONSE WAS LINEAR IN THIS INCREMENT

 AVERAGE MOMENT                      0.00       TIME AVG. MOMENT       137.    
                                                (FROM FORCE     FIELD)
 ALL MOMENT    RESIDUALS ARE ZERO
 LARGEST INCREMENT OF ROTATION     -1.645E-32   AT NODE          1   DOF  6
   INSTANCE: {assembly node}                                                                 
 LARGEST CORRECTION TO ROTATION    -5.102E-42   AT NODE          1   DOF  6
   INSTANCE: {assembly node}                                                                 
          THERE IS ZERO MOMENT    EVERYWHERE

 MAXIMUM DIFFERENCE IN CREEP STRAIN INCREMENT IS   1.908E-18
          TIME INCREMENT MAY NOW INCREASE TO    2.000E-06

 ITERATION SUMMARY FOR THE INCREMENT:   1 TOTAL ITERATIONS, OF WHICH
   0 ARE SEVERE DISCONTINUITY ITERATIONS AND  1 ARE EQUILIBRIUM ITERATIONS.

 TIME INCREMENT COMPLETED  1.000E-06,  FRACTION OF STEP COMPLETED  1.500E-08
 STEP TIME COMPLETED       3.000E-06,  TOTAL TIME COMPLETED        0.140    


  INCREMENT     4 STARTS. ATTEMPT NUMBER  1, TIME INCREMENT  2.000E-06
 
	SYMMETRIC NEW DIRECT SPARSE SOLVER RUNNING ON
 	1 HOST x 1 MPI RANK PER HOST x 1 THREAD PER RANK
        NUMBER OF EQUATIONS:  3023
        NUMBER OF RHS:        1
        NUMBER OF FLOPS:      3.852e+06
        SOLVER ELAPSED TIME:  6ms

               CONVERGENCE CHECKS FOR EQUILIBRIUM ITERATION     1


 AVERAGE FORCE                       294.       TIME AVG. FORCE        294.    
 LARGEST SCALED RESIDUAL FORCE     -8.009E-10   AT NODE       1386   DOF  2
   INSTANCE: ELG Specimen 2024-1                                                             
  CORRESPONDING RESIDUAL FORCE     -8.009E-10
 LARGEST INCREMENT OF DISP.         1.411E-08   AT NODE          1   DOF  2
   INSTANCE: {assembly node}                                                                 
 LARGEST CORRECTION TO DISP.       -1.852E-12   AT NODE        273   DOF  2
   INSTANCE: ELG Specimen 2024-1                                                             
          THE FORCE     EQUILIBRIUM RESPONSE WAS LINEAR IN THIS INCREMENT

 AVERAGE MOMENT                      0.00       TIME AVG. MOMENT       137.    
                                                (FROM FORCE     FIELD)
 ALL MOMENT    RESIDUALS ARE ZERO
 LARGEST INCREMENT OF ROTATION     -1.645E-32   AT NODE          1   DOF  6
   INSTANCE: {assembly node}                                                                 
 LARGEST CORRECTION TO ROTATION     1.645E-32   AT NODE          1   DOF  6
   INSTANCE: {assembly node}                                                                 
          THERE IS ZERO MOMENT    EVERYWHERE

 MAXIMUM DIFFERENCE IN CREEP STRAIN INCREMENT IS   7.792E-18
          TIME INCREMENT MAY NOW INCREASE TO    4.000E-06

 ITERATION SUMMARY FOR THE INCREMENT:   1 TOTAL ITERATIONS, OF WHICH
   0 ARE SEVERE DISCONTINUITY ITERATIONS AND  1 ARE EQUILIBRIUM ITERATIONS.

 TIME INCREMENT COMPLETED  2.000E-06,  FRACTION OF STEP COMPLETED  2.500E-08
 STEP TIME COMPLETED       5.000E-06,  TOTAL TIME COMPLETED        0.140    


  INCREMENT     5 STARTS. ATTEMPT NUMBER  1, TIME INCREMENT  4.000E-06
 
	SYMMETRIC NEW DIRECT SPARSE SOLVER RUNNING ON
 	1 HOST x 1 MPI RANK PER HOST x 1 THREAD PER RANK
        NUMBER OF EQUATIONS:  3023
        NUMBER OF RHS:        1
        NUMBER OF FLOPS:      3.852e+06
        SOLVER ELAPSED TIME:  7ms

               CONVERGENCE CHECKS FOR EQUILIBRIUM ITERATION     1


 AVERAGE FORCE                       294.       TIME AVG. FORCE        294.    
 LARGEST SCALED RESIDUAL FORCE      5.350E-10   AT NODE       1386   DOF  2
   INSTANCE: ELG Specimen 2024-1                                                             
  CORRESPONDING RESIDUAL FORCE      5.350E-10
 LARGEST INCREMENT OF DISP.         2.822E-08   AT NODE          1   DOF  2
   INSTANCE: {assembly node}                                                                 
 LARGEST CORRECTION TO DISP.        1.028E-12   AT NODE        352   DOF  2
   INSTANCE: ELG Specimen 2024-1                                                             
          THE FORCE     EQUILIBRIUM RESPONSE WAS LINEAR IN THIS INCREMENT

 AVERAGE MOMENT                      0.00       TIME AVG. MOMENT       137.    
                                                (FROM FORCE     FIELD)
 ALL MOMENT    RESIDUALS ARE ZERO
 LARGEST INCREMENT OF ROTATION     -1.645E-32   AT NODE          1   DOF  6
   INSTANCE: {assembly node}                                                                 
 LARGEST CORRECTION TO ROTATION     1.645E-32   AT NODE          1   DOF  6
   INSTANCE: {assembly node}                                                                 
          THERE IS ZERO MOMENT    EVERYWHERE

 MAXIMUM DIFFERENCE IN CREEP STRAIN INCREMENT IS   3.096E-17
          TIME INCREMENT MAY NOW INCREASE TO    8.000E-06

 ITERATION SUMMARY FOR THE INCREMENT:   1 TOTAL ITERATIONS, OF WHICH
   0 ARE SEVERE DISCONTINUITY ITERATIONS AND  1 ARE EQUILIBRIUM ITERATIONS.

 TIME INCREMENT COMPLETED  4.000E-06,  FRACTION OF STEP COMPLETED  4.500E-08
 STEP TIME COMPLETED       9.000E-06,  TOTAL TIME COMPLETED        0.140    


  INCREMENT     6 STARTS. ATTEMPT NUMBER  1, TIME INCREMENT  8.000E-06
 
	SYMMETRIC NEW DIRECT SPARSE SOLVER RUNNING ON
 	1 HOST x 1 MPI RANK PER HOST x 1 THREAD PER RANK
        NUMBER OF EQUATIONS:  3023
        NUMBER OF RHS:        1
        NUMBER OF FLOPS:      3.852e+06
        SOLVER ELAPSED TIME:  8ms

               CONVERGENCE CHECKS FOR EQUILIBRIUM ITERATION     1


 AVERAGE FORCE                       294.       TIME AVG. FORCE        294.    
 LARGEST SCALED RESIDUAL FORCE      4.002E-11   AT NODE          1   DOF  2
   INSTANCE:                                                                                 
  CORRESPONDING RESIDUAL FORCE      4.002E-11
 LARGEST INCREMENT OF DISP.         5.645E-08   AT NODE          1   DOF  2
   INSTANCE: {assembly node}                                                                 
 LARGEST CORRECTION TO DISP.       -1.470E-12   AT NODE         59   DOF  2
   INSTANCE: ELG Specimen 2024-1                                                             
          THE FORCE     EQUILIBRIUM RESPONSE WAS LINEAR IN THIS INCREMENT

 AVERAGE MOMENT                      0.00       TIME AVG. MOMENT       137.    
                                                (FROM FORCE     FIELD)
 ALL MOMENT    RESIDUALS ARE ZERO
 LARGEST INCREMENT OF ROTATION     -1.645E-32   AT NODE          1   DOF  6
   INSTANCE: {assembly node}                                                                 
 LARGEST CORRECTION TO ROTATION     1.645E-32   AT NODE          1   DOF  6
   INSTANCE: {assembly node}                                                                 
          THERE IS ZERO MOMENT    EVERYWHERE

 MAXIMUM DIFFERENCE IN CREEP STRAIN INCREMENT IS   1.238E-16
          TIME INCREMENT MAY NOW INCREASE TO    1.600E-05

 ITERATION SUMMARY FOR THE INCREMENT:   1 TOTAL ITERATIONS, OF WHICH
   0 ARE SEVERE DISCONTINUITY ITERATIONS AND  1 ARE EQUILIBRIUM ITERATIONS.

 TIME INCREMENT COMPLETED  8.000E-06,  FRACTION OF STEP COMPLETED  8.500E-08
 STEP TIME COMPLETED       1.700E-05,  TOTAL TIME COMPLETED        0.140    


  INCREMENT     7 STARTS. ATTEMPT NUMBER  1, TIME INCREMENT  1.600E-05
 
	SYMMETRIC NEW DIRECT SPARSE SOLVER RUNNING ON
 	1 HOST x 1 MPI RANK PER HOST x 1 THREAD PER RANK
        NUMBER OF EQUATIONS:  3023
        NUMBER OF RHS:        1
        NUMBER OF FLOPS:      3.852e+06
        SOLVER ELAPSED TIME:  9ms

               CONVERGENCE CHECKS FOR EQUILIBRIUM ITERATION     1


 AVERAGE FORCE                       294.       TIME AVG. FORCE        294.    
 LARGEST SCALED RESIDUAL FORCE      3.092E-11   AT NODE          1   DOF  2
   INSTANCE:                                                                                 
  CORRESPONDING RESIDUAL FORCE      3.092E-11
 LARGEST INCREMENT OF DISP.         1.129E-07   AT NODE          1   DOF  2
   INSTANCE: {assembly node}                                                                 
 LARGEST CORRECTION TO DISP.       -5.880E-12   AT NODE          1   DOF  2
   INSTANCE: {assembly node}                                                                 
          THE FORCE     EQUILIBRIUM RESPONSE WAS LINEAR IN THIS INCREMENT

 AVERAGE MOMENT                      0.00       TIME AVG. MOMENT       137.    
                                                (FROM FORCE     FIELD)
 ALL MOMENT    RESIDUALS ARE ZERO
 LARGEST INCREMENT OF ROTATION     -1.645E-32   AT NODE          1   DOF  6
   INSTANCE: {assembly node}                                                                 
 LARGEST CORRECTION TO ROTATION     1.645E-32   AT NODE          1   DOF  6
   INSTANCE: {assembly node}                                                                 
          THERE IS ZERO MOMENT    EVERYWHERE

 MAXIMUM DIFFERENCE IN CREEP STRAIN INCREMENT IS   4.953E-16
          TIME INCREMENT MAY NOW INCREASE TO    3.200E-05

 ITERATION SUMMARY FOR THE INCREMENT:   1 TOTAL ITERATIONS, OF WHICH
   0 ARE SEVERE DISCONTINUITY ITERATIONS AND  1 ARE EQUILIBRIUM ITERATIONS.

 TIME INCREMENT COMPLETED  1.600E-05,  FRACTION OF STEP COMPLETED  1.650E-07
 STEP TIME COMPLETED       3.300E-05,  TOTAL TIME COMPLETED        0.140    


  INCREMENT     8 STARTS. ATTEMPT NUMBER  1, TIME INCREMENT  3.200E-05
 
	SYMMETRIC NEW DIRECT SPARSE SOLVER RUNNING ON
 	1 HOST x 1 MPI RANK PER HOST x 1 THREAD PER RANK
        NUMBER OF EQUATIONS:  3023
        NUMBER OF RHS:        1
        NUMBER OF FLOPS:      3.852e+06
        SOLVER ELAPSED TIME:  5ms

               CONVERGENCE CHECKS FOR EQUILIBRIUM ITERATION     1


 AVERAGE FORCE                       294.       TIME AVG. FORCE        294.    
 LARGEST SCALED RESIDUAL FORCE     -3.160E-11   AT NODE        440   DOF  2
   INSTANCE: ELG Specimen 2024-1                                                             
  CORRESPONDING RESIDUAL FORCE     -3.160E-11
 LARGEST INCREMENT OF DISP.         2.258E-07   AT NODE          1   DOF  2
   INSTANCE: {assembly node}                                                                 
 LARGEST CORRECTION TO DISP.       -2.352E-11   AT NODE          1   DOF  2
   INSTANCE: {assembly node}                                                                 
          THE FORCE     EQUILIBRIUM RESPONSE WAS LINEAR IN THIS INCREMENT

 AVERAGE MOMENT                      0.00       TIME AVG. MOMENT       137.    
                                                (FROM FORCE     FIELD)
 ALL MOMENT    RESIDUALS ARE ZERO
 LARGEST INCREMENT OF ROTATION     -1.645E-32   AT NODE          1   DOF  6
   INSTANCE: {assembly node}                                                                 
 LARGEST CORRECTION TO ROTATION     1.645E-32   AT NODE          1   DOF  6
   INSTANCE: {assembly node}                                                                 
          THERE IS ZERO MOMENT    EVERYWHERE

 MAXIMUM DIFFERENCE IN CREEP STRAIN INCREMENT IS   1.981E-15
          TIME INCREMENT MAY NOW INCREASE TO    6.400E-05

 ITERATION SUMMARY FOR THE INCREMENT:   1 TOTAL ITERATIONS, OF WHICH
   0 ARE SEVERE DISCONTINUITY ITERATIONS AND  1 ARE EQUILIBRIUM ITERATIONS.

 TIME INCREMENT COMPLETED  3.200E-05,  FRACTION OF STEP COMPLETED  3.250E-07
 STEP TIME COMPLETED       6.500E-05,  TOTAL TIME COMPLETED        0.140    


  INCREMENT     9 STARTS. ATTEMPT NUMBER  1, TIME INCREMENT  6.400E-05
 
	SYMMETRIC NEW DIRECT SPARSE SOLVER RUNNING ON
 	1 HOST x 1 MPI RANK PER HOST x 1 THREAD PER RANK
        NUMBER OF EQUATIONS:  3023
        NUMBER OF RHS:        1
        NUMBER OF FLOPS:      3.852e+06
        SOLVER ELAPSED TIME:  5ms

               CONVERGENCE CHECKS FOR EQUILIBRIUM ITERATION     1


 AVERAGE FORCE                       294.       TIME AVG. FORCE        294.    
 LARGEST SCALED RESIDUAL FORCE     -0.528       AT NODE        262   DOF  1
   INSTANCE: ELG Specimen 2024-1                                                             
  CORRESPONDING RESIDUAL FORCE     -0.528    
 LARGEST INCREMENT OF DISP.         1.131E-04   AT NODE        264   DOF  2
   INSTANCE: ELG Specimen 2024-1                                                             
 LARGEST CORRECTION TO DISP.        1.126E-04   AT NODE        264   DOF  2
   INSTANCE: ELG Specimen 2024-1                                                             
          DISP.    CORRECTION TOO LARGE COMPARED TO DISP.    INCREMENT

 AVERAGE MOMENT                      0.00       TIME AVG. MOMENT       137.    
                                                (FROM FORCE     FIELD)
 ALL MOMENT    RESIDUALS ARE ZERO
 LARGEST INCREMENT OF ROTATION     -1.645E-32   AT NODE          1   DOF  6
   INSTANCE: {assembly node}                                                                 
 LARGEST CORRECTION TO ROTATION     1.645E-32   AT NODE          1   DOF  6
   INSTANCE: {assembly node}                                                                 
          THERE IS ZERO MOMENT    EVERYWHERE
 
	SYMMETRIC NEW DIRECT SPARSE SOLVER RUNNING ON
 	1 HOST x 1 MPI RANK PER HOST x 1 THREAD PER RANK
        NUMBER OF EQUATIONS:  3023
        NUMBER OF RHS:        1
        NUMBER OF FLOPS:      3.852e+06
        SOLVER ELAPSED TIME:  6ms

               CONVERGENCE CHECKS FOR EQUILIBRIUM ITERATION     2


 AVERAGE FORCE                       294.       TIME AVG. FORCE        294.    
 LARGEST SCALED RESIDUAL FORCE      0.156       AT NODE        190   DOF  2
   INSTANCE: ELG Specimen 2024-1                                                             
  CORRESPONDING RESIDUAL FORCE      0.156    
 LARGEST INCREMENT OF DISP.         1.198E-04   AT NODE        111   DOF  2
   INSTANCE: ELG Specimen 2024-1                                                             
 LARGEST CORRECTION TO DISP.        7.421E-06   AT NODE         84   DOF  2
   INSTANCE: ELG Specimen 2024-1                                                             
          DISP.    CORRECTION TOO LARGE COMPARED TO DISP.    INCREMENT

 AVERAGE MOMENT                      0.00       TIME AVG. MOMENT       137.    
                                                (FROM FORCE     FIELD)
 ALL MOMENT    RESIDUALS ARE ZERO
 LARGEST INCREMENT OF ROTATION     -1.645E-32   AT NODE          1   DOF  6
   INSTANCE: {assembly node}                                                                 
 LARGEST CORRECTION TO ROTATION    -9.540E-40   AT NODE          1   DOF  6
   INSTANCE: {assembly node}                                                                 
          THERE IS ZERO MOMENT    EVERYWHERE
 
	SYMMETRIC NEW DIRECT SPARSE SOLVER RUNNING ON
 	1 HOST x 1 MPI RANK PER HOST x 1 THREAD PER RANK
        NUMBER OF EQUATIONS:  3023
        NUMBER OF RHS:        1
        NUMBER OF FLOPS:      3.852e+06
        SOLVER ELAPSED TIME:  7ms

               CONVERGENCE CHECKS FOR EQUILIBRIUM ITERATION     3


 AVERAGE FORCE                       294.       TIME AVG. FORCE        294.    
 LARGEST SCALED RESIDUAL FORCE      5.136E-02   AT NODE       1462   DOF  2
   INSTANCE: ELG Specimen 2024-1                                                             
  CORRESPONDING RESIDUAL FORCE      5.136E-02
 LARGEST INCREMENT OF DISP.         1.280E-04   AT NODE        109   DOF  2
   INSTANCE: ELG Specimen 2024-1                                                             
 LARGEST CORRECTION TO DISP.        8.591E-06   AT NODE        104   DOF  2
   INSTANCE: ELG Specimen 2024-1                                                             
          DISP.    CORRECTION TOO LARGE COMPARED TO DISP.    INCREMENT

 AVERAGE MOMENT                      0.00       TIME AVG. MOMENT       137.    
                                                (FROM FORCE     FIELD)
 ALL MOMENT    RESIDUALS ARE ZERO
 LARGEST INCREMENT OF ROTATION     -1.645E-32   AT NODE          1   DOF  6
   INSTANCE: {assembly node}                                                                 
 LARGEST CORRECTION TO ROTATION     6.886E-40   AT NODE          1   DOF  6
   INSTANCE: {assembly node}                                                                 
          THERE IS ZERO MOMENT    EVERYWHERE
 
	SYMMETRIC NEW DIRECT SPARSE SOLVER RUNNING ON
 	1 HOST x 1 MPI RANK PER HOST x 1 THREAD PER RANK
        NUMBER OF EQUATIONS:  3023
        NUMBER OF RHS:        1
        NUMBER OF FLOPS:      3.852e+06
        SOLVER ELAPSED TIME:  8ms

               CONVERGENCE CHECKS FOR EQUILIBRIUM ITERATION     4


 AVERAGE FORCE                       294.       TIME AVG. FORCE        294.    
 LARGEST SCALED RESIDUAL FORCE     -1.621E-02   AT NODE        602   DOF  2
   INSTANCE: ELG Specimen 2024-1                                                             
  CORRESPONDING RESIDUAL FORCE     -1.621E-02
 LARGEST INCREMENT OF DISP.         1.336E-04   AT NODE        109   DOF  2
   INSTANCE: ELG Specimen 2024-1                                                             
 LARGEST CORRECTION TO DISP.        5.641E-06   AT NODE         87   DOF  2
   INSTANCE: ELG Specimen 2024-1                                                             
          DISP.    CORRECTION TOO LARGE COMPARED TO DISP.    INCREMENT

 AVERAGE MOMENT                      0.00       TIME AVG. MOMENT       137.    
                                                (FROM FORCE     FIELD)
 ALL MOMENT    RESIDUALS ARE ZERO
 LARGEST INCREMENT OF ROTATION     -1.645E-32   AT NODE          1   DOF  6
   INSTANCE: {assembly node}                                                                 
 LARGEST CORRECTION TO ROTATION     1.676E-40   AT NODE          1   DOF  6
   INSTANCE: {assembly node}                                                                 
          THERE IS ZERO MOMENT    EVERYWHERE
 
	SYMMETRIC NEW DIRECT SPARSE SOLVER RUNNING ON
 	1 HOST x 1 MPI RANK PER HOST x 1 THREAD PER RANK
        NUMBER OF EQUATIONS:  3023
        NUMBER OF RHS:        1
        NUMBER OF FLOPS:      3.852e+06
        SOLVER ELAPSED TIME:  6ms

               CONVERGENCE CHECKS FOR EQUILIBRIUM ITERATION     5


 AVERAGE FORCE                       294.       TIME AVG. FORCE        294.    
 LARGEST SCALED RESIDUAL FORCE     -6.709E-03   AT NODE        621   DOF  1
   INSTANCE: ELG Specimen 2024-1                                                             
  CORRESPONDING RESIDUAL FORCE     -6.709E-03
 LARGEST INCREMENT OF DISP.         1.343E-04   AT NODE        609   DOF  2
   INSTANCE: ELG Specimen 2024-1                                                             
 LARGEST CORRECTION TO DISP.        7.684E-07   AT NODE          1   DOF  2
   INSTANCE: ELG Specimen 2024-1                                                             
          THE FORCE     EQUILIBRIUM EQUATIONS HAVE CONVERGED

 AVERAGE MOMENT                      0.00       TIME AVG. MOMENT       137.    
                                                (FROM FORCE     FIELD)
 ALL MOMENT    RESIDUALS ARE ZERO
 LARGEST INCREMENT OF ROTATION     -1.645E-32   AT NODE          1   DOF  6
   INSTANCE: {assembly node}                                                                 
 LARGEST CORRECTION TO ROTATION     1.145E-41   AT NODE          1   DOF  6
   INSTANCE: {assembly node}                                                                 
          THERE IS ZERO MOMENT    EVERYWHERE

 MAXIMUM DIFFERENCE IN CREEP STRAIN INCREMENT IS   9.591E-10

 ITERATION SUMMARY FOR THE INCREMENT:   5 TOTAL ITERATIONS, OF WHICH
   0 ARE SEVERE DISCONTINUITY ITERATIONS AND  5 ARE EQUILIBRIUM ITERATIONS.

 TIME INCREMENT COMPLETED  6.400E-05,  FRACTION OF STEP COMPLETED  6.450E-07
 STEP TIME COMPLETED       1.290E-04,  TOTAL TIME COMPLETED        0.140    


  INCREMENT    10 STARTS. ATTEMPT NUMBER  1, TIME INCREMENT  6.400E-05
 
	SYMMETRIC NEW DIRECT SPARSE SOLVER RUNNING ON
 	1 HOST x 1 MPI RANK PER HOST x 1 THREAD PER RANK
        NUMBER OF EQUATIONS:  3023
        NUMBER OF RHS:        1
        NUMBER OF FLOPS:      3.852e+06
        SOLVER ELAPSED TIME:  9ms

               CONVERGENCE CHECKS FOR EQUILIBRIUM ITERATION     1


 AVERAGE FORCE                       294.       TIME AVG. FORCE        294.    
 LARGEST SCALED RESIDUAL FORCE      0.218       AT NODE        196   DOF  2
   INSTANCE: ELG Specimen 2024-1                                                             
  CORRESPONDING RESIDUAL FORCE      0.218    
 LARGEST INCREMENT OF DISP.         5.907E-05   AT NODE        106   DOF  2
   INSTANCE: ELG Specimen 2024-1                                                             
 LARGEST CORRECTION TO DISP.       -7.693E-05   AT NODE        264   DOF  2
   INSTANCE: ELG Specimen 2024-1                                                             
          DISP.    CORRECTION TOO LARGE COMPARED TO DISP.    INCREMENT

 AVERAGE MOMENT                      0.00       TIME AVG. MOMENT       137.    
                                                (FROM FORCE     FIELD)
 ALL MOMENT    RESIDUALS ARE ZERO
 LARGEST INCREMENT OF ROTATION     -1.645E-32   AT NODE          1   DOF  6
   INSTANCE: {assembly node}                                                                 
 LARGEST CORRECTION TO ROTATION    -2.546E-40   AT NODE          1   DOF  6
   INSTANCE: {assembly node}                                                                 
          THERE IS ZERO MOMENT    EVERYWHERE
 
	SYMMETRIC NEW DIRECT SPARSE SOLVER RUNNING ON
 	1 HOST x 1 MPI RANK PER HOST x 1 THREAD PER RANK
        NUMBER OF EQUATIONS:  3023
        NUMBER OF RHS:        1
        NUMBER OF FLOPS:      3.852e+06
        SOLVER ELAPSED TIME:  6ms

               CONVERGENCE CHECKS FOR EQUILIBRIUM ITERATION     2


 AVERAGE FORCE                       294.       TIME AVG. FORCE        294.    
 LARGEST SCALED RESIDUAL FORCE     -1.049E-02   AT NODE        626   DOF  2
   INSTANCE: ELG Specimen 2024-1                                                             
  CORRESPONDING RESIDUAL FORCE     -1.049E-02
 LARGEST INCREMENT OF DISP.         5.995E-05   AT NODE          1   DOF  2
   INSTANCE: ELG Specimen 2024-1                                                             
 LARGEST CORRECTION TO DISP.        1.011E-06   AT NODE        334   DOF  2
   INSTANCE: ELG Specimen 2024-1                                                             
 ESTIMATE OF DISP.    CORRECTION   -4.877E-08
 FORCE     EQUILIB. ACCEPTED BASED ON SMALL RESIDUAL AND ESTIMATED CORRECTION

 AVERAGE MOMENT                      0.00       TIME AVG. MOMENT       137.    
                                                (FROM FORCE     FIELD)
 ALL MOMENT    RESIDUALS ARE ZERO
 LARGEST INCREMENT OF ROTATION     -1.645E-32   AT NODE          1   DOF  6
   INSTANCE: {assembly node}                                                                 
 LARGEST CORRECTION TO ROTATION     2.697E-40   AT NODE          1   DOF  6
   INSTANCE: {assembly node}                                                                 
          THERE IS ZERO MOMENT    EVERYWHERE

 MAXIMUM DIFFERENCE IN CREEP STRAIN INCREMENT IS   1.742E-09

 ITERATION SUMMARY FOR THE INCREMENT:   2 TOTAL ITERATIONS, OF WHICH
   0 ARE SEVERE DISCONTINUITY ITERATIONS AND  2 ARE EQUILIBRIUM ITERATIONS.

 TIME INCREMENT COMPLETED  6.400E-05,  FRACTION OF STEP COMPLETED  9.650E-07
 STEP TIME COMPLETED       1.930E-04,  TOTAL TIME COMPLETED        0.140    


  INCREMENT    11 STARTS. ATTEMPT NUMBER  1, TIME INCREMENT  6.400E-05
 
	SYMMETRIC NEW DIRECT SPARSE SOLVER RUNNING ON
 	1 HOST x 1 MPI RANK PER HOST x 1 THREAD PER RANK
        NUMBER OF EQUATIONS:  3023
        NUMBER OF RHS:        1
        NUMBER OF FLOPS:      3.852e+06
        SOLVER ELAPSED TIME:  5ms

               CONVERGENCE CHECKS FOR EQUILIBRIUM ITERATION     1


 AVERAGE FORCE                       294.       TIME AVG. FORCE        294.    
 LARGEST SCALED RESIDUAL FORCE      -1.26       AT NODE         97   DOF  1
   INSTANCE: ELG Specimen 2024-1                                                             
  CORRESPONDING RESIDUAL FORCE      -1.26    
 LARGEST INCREMENT OF DISP.         2.044E-05   AT NODE        270   DOF  2
   INSTANCE: ELG Specimen 2024-1                                                             
 LARGEST CORRECTION TO DISP.       -4.339E-05   AT NODE          1   DOF  2
   INSTANCE: ELG Specimen 2024-1                                                             
          DISP.    CORRECTION TOO LARGE COMPARED TO DISP.    INCREMENT

 AVERAGE MOMENT                      0.00       TIME AVG. MOMENT       137.    
                                                (FROM FORCE     FIELD)
 ALL MOMENT    RESIDUALS ARE ZERO
 LARGEST INCREMENT OF ROTATION     -1.645E-32   AT NODE          1   DOF  6
   INSTANCE: {assembly node}                                                                 
 LARGEST CORRECTION TO ROTATION    -3.019E-40   AT NODE          1   DOF  6
   INSTANCE: {assembly node}                                                                 
          THERE IS ZERO MOMENT    EVERYWHERE
 
	SYMMETRIC NEW DIRECT SPARSE SOLVER RUNNING ON
 	1 HOST x 1 MPI RANK PER HOST x 1 THREAD PER RANK
        NUMBER OF EQUATIONS:  3023
        NUMBER OF RHS:        1
        NUMBER OF FLOPS:      3.852e+06
        SOLVER ELAPSED TIME:  6ms

               CONVERGENCE CHECKS FOR EQUILIBRIUM ITERATION     2


 AVERAGE FORCE                       294.       TIME AVG. FORCE        294.    
 LARGEST SCALED RESIDUAL FORCE      0.115       AT NODE       1466   DOF  2
   INSTANCE: ELG Specimen 2024-1                                                             
  CORRESPONDING RESIDUAL FORCE      0.115    
 LARGEST INCREMENT OF DISP.         3.153E-05   AT NODE        105   DOF  2
   INSTANCE: ELG Specimen 2024-1                                                             
 LARGEST CORRECTION TO DISP.        1.495E-05   AT NODE        105   DOF  2
   INSTANCE: ELG Specimen 2024-1                                                             
          DISP.    CORRECTION TOO LARGE COMPARED TO DISP.    INCREMENT

 AVERAGE MOMENT                      0.00       TIME AVG. MOMENT       137.    
                                                (FROM FORCE     FIELD)
 ALL MOMENT    RESIDUALS ARE ZERO
 LARGEST INCREMENT OF ROTATION     -1.645E-32   AT NODE          1   DOF  6
   INSTANCE: {assembly node}                                                                 
 LARGEST CORRECTION TO ROTATION    -1.434E-40   AT NODE          1   DOF  6
   INSTANCE: {assembly node}                                                                 
          THERE IS ZERO MOMENT    EVERYWHERE
 
	SYMMETRIC NEW DIRECT SPARSE SOLVER RUNNING ON
 	1 HOST x 1 MPI RANK PER HOST x 1 THREAD PER RANK
        NUMBER OF EQUATIONS:  3023
        NUMBER OF RHS:        1
        NUMBER OF FLOPS:      3.852e+06
        SOLVER ELAPSED TIME:  6ms

               CONVERGENCE CHECKS FOR EQUILIBRIUM ITERATION     3


 AVERAGE FORCE                       294.       TIME AVG. FORCE        294.    
 LARGEST SCALED RESIDUAL FORCE     -7.118E-02   AT NODE        351   DOF  1
   INSTANCE: ELG Specimen 2024-1                                                             
  CORRESPONDING RESIDUAL FORCE     -7.118E-02
 LARGEST INCREMENT OF DISP.         3.369E-05   AT NODE          1   DOF  2
   INSTANCE: ELG Specimen 2024-1                                                             
 LARGEST CORRECTION TO DISP.        2.220E-06   AT NODE         87   DOF  2
   INSTANCE: ELG Specimen 2024-1                                                             
          DISP.    CORRECTION TOO LARGE COMPARED TO DISP.    INCREMENT

 AVERAGE MOMENT                      0.00       TIME AVG. MOMENT       137.    
                                                (FROM FORCE     FIELD)
 ALL MOMENT    RESIDUALS ARE ZERO
 LARGEST INCREMENT OF ROTATION     -1.645E-32   AT NODE          1   DOF  6
   INSTANCE: {assembly node}                                                                 
 LARGEST CORRECTION TO ROTATION    -5.258E-41   AT NODE          1   DOF  6
   INSTANCE: {assembly node}                                                                 
          THERE IS ZERO MOMENT    EVERYWHERE
 
	SYMMETRIC NEW DIRECT SPARSE SOLVER RUNNING ON
 	1 HOST x 1 MPI RANK PER HOST x 1 THREAD PER RANK
        NUMBER OF EQUATIONS:  3023
        NUMBER OF RHS:        1
        NUMBER OF FLOPS:      3.852e+06
        SOLVER ELAPSED TIME:  7ms

               CONVERGENCE CHECKS FOR EQUILIBRIUM ITERATION     4


 AVERAGE FORCE                       294.       TIME AVG. FORCE        294.    
 LARGEST SCALED RESIDUAL FORCE      2.229E-02   AT NODE        645   DOF  2
   INSTANCE: ELG Specimen 2024-1                                                             
  CORRESPONDING RESIDUAL FORCE      2.229E-02
 LARGEST INCREMENT OF DISP.         3.496E-05   AT NODE          1   DOF  2
   INSTANCE: ELG Specimen 2024-1                                                             
 LARGEST CORRECTION TO DISP.        1.338E-06   AT NODE         80   DOF  2
   INSTANCE: ELG Specimen 2024-1                                                             
          DISP.    CORRECTION TOO LARGE COMPARED TO DISP.    INCREMENT

 AVERAGE MOMENT                      0.00       TIME AVG. MOMENT       137.    
                                                (FROM FORCE     FIELD)
 ALL MOMENT    RESIDUALS ARE ZERO
 LARGEST INCREMENT OF ROTATION     -1.645E-32   AT NODE          1   DOF  6
   INSTANCE: {assembly node}                                                                 
 LARGEST CORRECTION TO ROTATION    -1.727E-40   AT NODE          1   DOF  6
   INSTANCE: {assembly node}                                                                 
          THERE IS ZERO MOMENT    EVERYWHERE
 
	SYMMETRIC NEW DIRECT SPARSE SOLVER RUNNING ON
 	1 HOST x 1 MPI RANK PER HOST x 1 THREAD PER RANK
        NUMBER OF EQUATIONS:  3023
        NUMBER OF RHS:        1
        NUMBER OF FLOPS:      3.852e+06
        SOLVER ELAPSED TIME:  8ms

               CONVERGENCE CHECKS FOR EQUILIBRIUM ITERATION     5


 AVERAGE FORCE                       294.       TIME AVG. FORCE        294.    
 LARGEST SCALED RESIDUAL FORCE     -5.469E-03   AT NODE         15   DOF  2
   INSTANCE: ELG Specimen 2024-1                                                             
  CORRESPONDING RESIDUAL FORCE     -5.469E-03
 LARGEST INCREMENT OF DISP.         3.532E-05   AT NODE         85   DOF  2
   INSTANCE: ELG Specimen 2024-1                                                             
 LARGEST CORRECTION TO DISP.        3.976E-07   AT NODE         82   DOF  2
   INSTANCE: ELG Specimen 2024-1                                                             
 ESTIMATE OF DISP.    CORRECTION   -9.755E-08
 FORCE     EQUILIB. ACCEPTED BASED ON SMALL RESIDUAL AND ESTIMATED CORRECTION

 AVERAGE MOMENT                      0.00       TIME AVG. MOMENT       137.    
                                                (FROM FORCE     FIELD)
 ALL MOMENT    RESIDUALS ARE ZERO
 LARGEST INCREMENT OF ROTATION     -1.645E-32   AT NODE          1   DOF  6
   INSTANCE: {assembly node}                                                                 
 LARGEST CORRECTION TO ROTATION     2.603E-40   AT NODE          1   DOF  6
   INSTANCE: {assembly node}                                                                 
          THERE IS ZERO MOMENT    EVERYWHERE

 MAXIMUM DIFFERENCE IN CREEP STRAIN INCREMENT IS   8.248E-10

 ITERATION SUMMARY FOR THE INCREMENT:   5 TOTAL ITERATIONS, OF WHICH
   0 ARE SEVERE DISCONTINUITY ITERATIONS AND  5 ARE EQUILIBRIUM ITERATIONS.

 TIME INCREMENT COMPLETED  6.400E-05,  FRACTION OF STEP COMPLETED  1.285E-06
 STEP TIME COMPLETED       2.570E-04,  TOTAL TIME COMPLETED        0.140    


  INCREMENT    12 STARTS. ATTEMPT NUMBER  1, TIME INCREMENT  6.400E-05
 
	SYMMETRIC NEW DIRECT SPARSE SOLVER RUNNING ON
 	1 HOST x 1 MPI RANK PER HOST x 1 THREAD PER RANK
        NUMBER OF EQUATIONS:  3023
        NUMBER OF RHS:        1
        NUMBER OF FLOPS:      3.852e+06
        SOLVER ELAPSED TIME:  6ms

               CONVERGENCE CHECKS FOR EQUILIBRIUM ITERATION     1


 AVERAGE FORCE                       294.       TIME AVG. FORCE        294.    
 LARGEST SCALED RESIDUAL FORCE     -0.715       AT NODE        195   DOF  1
   INSTANCE: ELG Specimen 2024-1                                                             
  CORRESPONDING RESIDUAL FORCE     -0.715    
 LARGEST INCREMENT OF DISP.         1.794E-05   AT NODE       1393   DOF  2
   INSTANCE: ELG Specimen 2024-1                                                             
 LARGEST CORRECTION TO DISP.       -1.888E-05   AT NODE          1   DOF  2
   INSTANCE: ELG Specimen 2024-1                                                             
          DISP.    CORRECTION TOO LARGE COMPARED TO DISP.    INCREMENT

 AVERAGE MOMENT                      0.00       TIME AVG. MOMENT       137.    
                                                (FROM FORCE     FIELD)
 ALL MOMENT    RESIDUALS ARE ZERO
 LARGEST INCREMENT OF ROTATION     -1.645E-32   AT NODE          1   DOF  6
   INSTANCE: {assembly node}                                                                 
 LARGEST CORRECTION TO ROTATION    -1.275E-40   AT NODE          1   DOF  6
   INSTANCE: {assembly node}                                                                 
          THERE IS ZERO MOMENT    EVERYWHERE
 
	SYMMETRIC NEW DIRECT SPARSE SOLVER RUNNING ON
 	1 HOST x 1 MPI RANK PER HOST x 1 THREAD PER RANK
        NUMBER OF EQUATIONS:  3023
        NUMBER OF RHS:        1
        NUMBER OF FLOPS:      3.852e+06
        SOLVER ELAPSED TIME:  6ms

               CONVERGENCE CHECKS FOR EQUILIBRIUM ITERATION     2


 AVERAGE FORCE                       294.       TIME AVG. FORCE        294.    
 LARGEST SCALED RESIDUAL FORCE      6.126E-02   AT NODE       1474   DOF  2
   INSTANCE: ELG Specimen 2024-1                                                             
  CORRESPONDING RESIDUAL FORCE      6.126E-02
 LARGEST INCREMENT OF DISP.         2.573E-05   AT NODE         84   DOF  2
   INSTANCE: ELG Specimen 2024-1                                                             
 LARGEST CORRECTION TO DISP.        9.130E-06   AT NODE         86   DOF  2
[...]


 AVERAGE FORCE                       295.       TIME AVG. FORCE        294.    
 LARGEST SCALED RESIDUAL FORCE     -0.168       AT NODE       1513   DOF  1
   INSTANCE: ELG Specimen 2024-1                                                             
  CORRESPONDING RESIDUAL FORCE     -0.168    
 LARGEST INCREMENT OF DISP.         3.860E-03   AT NODE          1   DOF  2
   INSTANCE: {assembly node}                                                                 
 LARGEST CORRECTION TO DISP.        2.405E-06   AT NODE        367   DOF  2
   INSTANCE: ELG Specimen 2024-1                                                             
          THE FORCE     EQUILIBRIUM EQUATIONS HAVE CONVERGED

 AVERAGE MOMENT                      0.00       TIME AVG. MOMENT       137.    
                                                (FROM FORCE     FIELD)
 ALL MOMENT    RESIDUALS ARE ZERO
 LARGEST INCREMENT OF ROTATION     -1.647E-32   AT NODE          1   DOF  6
   INSTANCE: {assembly node}                                                                 
 LARGEST CORRECTION TO ROTATION     4.638E-39   AT NODE          1   DOF  6
   INSTANCE: {assembly node}                                                                 
          THERE IS ZERO MOMENT    EVERYWHERE

 MAXIMUM DIFFERENCE IN CREEP STRAIN INCREMENT IS   8.815E-08
          TIME INCREMENT MAY NOW INCREASE TO     18.4    

 ITERATION SUMMARY FOR THE INCREMENT:   2 TOTAL ITERATIONS, OF WHICH
   0 ARE SEVERE DISCONTINUITY ITERATIONS AND  2 ARE EQUILIBRIUM ITERATIONS.

 TIME INCREMENT COMPLETED   12.3    ,  FRACTION OF STEP COMPLETED  0.184    
 STEP TIME COMPLETED        36.8    ,  TOTAL TIME COMPLETED         37.0    


  INCREMENT    44 STARTS. ATTEMPT NUMBER  1, TIME INCREMENT   18.4    
 
	SYMMETRIC NEW DIRECT SPARSE SOLVER RUNNING ON
 	1 HOST x 1 MPI RANK PER HOST x 1 THREAD PER RANK
        NUMBER OF EQUATIONS:  3023
        NUMBER OF RHS:        1
        NUMBER OF FLOPS:      3.852e+06
        SOLVER ELAPSED TIME:  9ms

               CONVERGENCE CHECKS FOR EQUILIBRIUM ITERATION     1


 AVERAGE FORCE                       295.       TIME AVG. FORCE        294.    
 LARGEST SCALED RESIDUAL FORCE       1.01       AT NODE        360   DOF  2
   INSTANCE: ELG Specimen 2024-1                                                             
  CORRESPONDING RESIDUAL FORCE       1.01    
 LARGEST INCREMENT OF DISP.         4.526E-03   AT NODE          1   DOF  2
   INSTANCE: {assembly node}                                                                 
 LARGEST CORRECTION TO DISP.       -1.264E-03   AT NODE          1   DOF  2
   INSTANCE: {assembly node}                                                                 
          DISP.    CORRECTION TOO LARGE COMPARED TO DISP.    INCREMENT

 AVERAGE MOMENT                      0.00       TIME AVG. MOMENT       137.    
                                                (FROM FORCE     FIELD)
 ALL MOMENT    RESIDUALS ARE ZERO
 LARGEST INCREMENT OF ROTATION     -1.647E-32   AT NODE          1   DOF  6
   INSTANCE: {assembly node}                                                                 
 LARGEST CORRECTION TO ROTATION     8.232E-33   AT NODE          1   DOF  6
   INSTANCE: {assembly node}                                                                 
          THERE IS ZERO MOMENT    EVERYWHERE
 
	SYMMETRIC NEW DIRECT SPARSE SOLVER RUNNING ON
 	1 HOST x 1 MPI RANK PER HOST x 1 THREAD PER RANK
        NUMBER OF EQUATIONS:  3023
        NUMBER OF RHS:        1
        NUMBER OF FLOPS:      3.852e+06
        SOLVER ELAPSED TIME:  8ms

               CONVERGENCE CHECKS FOR EQUILIBRIUM ITERATION     2


 AVERAGE FORCE                       295.       TIME AVG. FORCE        294.    
 LARGEST SCALED RESIDUAL FORCE      6.817E-02   AT NODE        359   DOF  2
   INSTANCE: ELG Specimen 2024-1                                                             
  CORRESPONDING RESIDUAL FORCE      6.817E-02
 LARGEST INCREMENT OF DISP.         4.529E-03   AT NODE          1   DOF  2
   INSTANCE: {assembly node}                                                                 
 LARGEST CORRECTION TO DISP.        3.316E-06   AT NODE        360   DOF  2
   INSTANCE: ELG Specimen 2024-1                                                             
          THE FORCE     EQUILIBRIUM EQUATIONS HAVE CONVERGED

 AVERAGE MOMENT                      0.00       TIME AVG. MOMENT       137.    
                                                (FROM FORCE     FIELD)
 ALL MOMENT    RESIDUALS ARE ZERO
 LARGEST INCREMENT OF ROTATION     -1.647E-32   AT NODE          1   DOF  6
   INSTANCE: {assembly node}                                                                 
 LARGEST CORRECTION TO ROTATION     6.537E-39   AT NODE          1   DOF  6
   INSTANCE: {assembly node}                                                                 
          THERE IS ZERO MOMENT    EVERYWHERE

 MAXIMUM DIFFERENCE IN CREEP STRAIN INCREMENT IS   1.211E-07
          TIME INCREMENT MAY NOW INCREASE TO     27.6    

 ITERATION SUMMARY FOR THE INCREMENT:   2 TOTAL ITERATIONS, OF WHICH
   0 ARE SEVERE DISCONTINUITY ITERATIONS AND  2 ARE EQUILIBRIUM ITERATIONS.

 TIME INCREMENT COMPLETED   18.4    ,  FRACTION OF STEP COMPLETED  0.276    
 STEP TIME COMPLETED        55.2    ,  TOTAL TIME COMPLETED         55.4    


  INCREMENT    45 STARTS. ATTEMPT NUMBER  1, TIME INCREMENT   27.6    
 
	SYMMETRIC NEW DIRECT SPARSE SOLVER RUNNING ON
 	1 HOST x 1 MPI RANK PER HOST x 1 THREAD PER RANK
        NUMBER OF EQUATIONS:  3023
        NUMBER OF RHS:        1
        NUMBER OF FLOPS:      3.852e+06
        SOLVER ELAPSED TIME:  9ms

               CONVERGENCE CHECKS FOR EQUILIBRIUM ITERATION     1


 AVERAGE FORCE                       295.       TIME AVG. FORCE        295.    
 LARGEST SCALED RESIDUAL FORCE       1.15       AT NODE        360   DOF  2
   INSTANCE: ELG Specimen 2024-1                                                             
  CORRESPONDING RESIDUAL FORCE       1.15    
 LARGEST INCREMENT OF DISP.         5.296E-03   AT NODE          1   DOF  2
   INSTANCE: {assembly node}                                                                 
 LARGEST CORRECTION TO DISP.       -1.499E-03   AT NODE          1   DOF  2
   INSTANCE: {assembly node}                                                                 
          DISP.    CORRECTION TOO LARGE COMPARED TO DISP.    INCREMENT

 AVERAGE MOMENT                      0.00       TIME AVG. MOMENT       137.    
                                                (FROM FORCE     FIELD)
 ALL MOMENT    RESIDUALS ARE ZERO
 LARGEST INCREMENT OF ROTATION     -1.647E-32   AT NODE          1   DOF  6
   INSTANCE: {assembly node}                                                                 
 LARGEST CORRECTION TO ROTATION     8.232E-33   AT NODE          1   DOF  6
   INSTANCE: {assembly node}                                                                 
          THERE IS ZERO MOMENT    EVERYWHERE
 
	SYMMETRIC NEW DIRECT SPARSE SOLVER RUNNING ON
 	1 HOST x 1 MPI RANK PER HOST x 1 THREAD PER RANK
        NUMBER OF EQUATIONS:  3023
        NUMBER OF RHS:        1
        NUMBER OF FLOPS:      3.852e+06
        SOLVER ELAPSED TIME:  8ms

               CONVERGENCE CHECKS FOR EQUILIBRIUM ITERATION     2


 AVERAGE FORCE                       295.       TIME AVG. FORCE        295.    
 LARGEST SCALED RESIDUAL FORCE     -0.112       AT NODE       1513   DOF  1
   INSTANCE: ELG Specimen 2024-1                                                             
  CORRESPONDING RESIDUAL FORCE     -0.112    
 LARGEST INCREMENT OF DISP.         5.315E-03   AT NODE          1   DOF  2
   INSTANCE: {assembly node}                                                                 
 LARGEST CORRECTION TO DISP.        1.959E-05   AT NODE        367   DOF  2
   INSTANCE: ELG Specimen 2024-1                                                             
          THE FORCE     EQUILIBRIUM EQUATIONS HAVE CONVERGED

 AVERAGE MOMENT                      0.00       TIME AVG. MOMENT       137.    
                                                (FROM FORCE     FIELD)
 ALL MOMENT    RESIDUALS ARE ZERO
 LARGEST INCREMENT OF ROTATION     -1.647E-32   AT NODE          1   DOF  6
   INSTANCE: {assembly node}                                                                 
 LARGEST CORRECTION TO ROTATION     6.535E-39   AT NODE          1   DOF  6
   INSTANCE: {assembly node}                                                                 
          THERE IS ZERO MOMENT    EVERYWHERE

 MAXIMUM DIFFERENCE IN CREEP STRAIN INCREMENT IS   1.670E-07
          TIME INCREMENT MAY NOW INCREASE TO     41.4    

 ITERATION SUMMARY FOR THE INCREMENT:   2 TOTAL ITERATIONS, OF WHICH
   0 ARE SEVERE DISCONTINUITY ITERATIONS AND  2 ARE EQUILIBRIUM ITERATIONS.

 TIME INCREMENT COMPLETED   27.6    ,  FRACTION OF STEP COMPLETED  0.414    
 STEP TIME COMPLETED        82.8    ,  TOTAL TIME COMPLETED         83.0    


  INCREMENT    46 STARTS. ATTEMPT NUMBER  1, TIME INCREMENT   41.4    
 
	SYMMETRIC NEW DIRECT SPARSE SOLVER RUNNING ON
 	1 HOST x 1 MPI RANK PER HOST x 1 THREAD PER RANK
        NUMBER OF EQUATIONS:  3023
        NUMBER OF RHS:        1
        NUMBER OF FLOPS:      3.852e+06
        SOLVER ELAPSED TIME:  10ms

               CONVERGENCE CHECKS FOR EQUILIBRIUM ITERATION     1


 AVERAGE FORCE                       295.       TIME AVG. FORCE        295.    
 LARGEST SCALED RESIDUAL FORCE       1.28       AT NODE        360   DOF  2
   INSTANCE: ELG Specimen 2024-1                                                             
  CORRESPONDING RESIDUAL FORCE       1.28    
 LARGEST INCREMENT OF DISP.         6.233E-03   AT NODE          1   DOF  2
   INSTANCE: {assembly node}                                                                 
 LARGEST CORRECTION TO DISP.       -1.740E-03   AT NODE          1   DOF  2
   INSTANCE: {assembly node}                                                                 
          DISP.    CORRECTION TOO LARGE COMPARED TO DISP.    INCREMENT

 AVERAGE MOMENT                      0.00       TIME AVG. MOMENT       137.    
                                                (FROM FORCE     FIELD)
 ALL MOMENT    RESIDUALS ARE ZERO
 LARGEST INCREMENT OF ROTATION     -1.648E-32   AT NODE          1   DOF  6
   INSTANCE: {assembly node}                                                                 
 LARGEST CORRECTION TO ROTATION     8.233E-33   AT NODE          1   DOF  6
   INSTANCE: {assembly node}                                                                 
          THERE IS ZERO MOMENT    EVERYWHERE
 
	SYMMETRIC NEW DIRECT SPARSE SOLVER RUNNING ON
 	1 HOST x 1 MPI RANK PER HOST x 1 THREAD PER RANK
        NUMBER OF EQUATIONS:  3023
        NUMBER OF RHS:        1
        NUMBER OF FLOPS:      3.852e+06
        SOLVER ELAPSED TIME:  7ms

               CONVERGENCE CHECKS FOR EQUILIBRIUM ITERATION     2


 AVERAGE FORCE                       295.       TIME AVG. FORCE        295.    
 LARGEST SCALED RESIDUAL FORCE     -0.231       AT NODE       1513   DOF  1
   INSTANCE: ELG Specimen 2024-1                                                             
  CORRESPONDING RESIDUAL FORCE     -0.231    
 LARGEST INCREMENT OF DISP.         6.238E-03   AT NODE          1   DOF  2
   INSTANCE: {assembly node}                                                                 
 LARGEST CORRECTION TO DISP.        6.016E-06   AT NODE        360   DOF  2
   INSTANCE: ELG Specimen 2024-1                                                             
          THE FORCE     EQUILIBRIUM EQUATIONS HAVE CONVERGED

 AVERAGE MOMENT                      0.00       TIME AVG. MOMENT       137.    
                                                (FROM FORCE     FIELD)
 ALL MOMENT    RESIDUALS ARE ZERO
 LARGEST INCREMENT OF ROTATION     -1.648E-32   AT NODE          1   DOF  6
   INSTANCE: {assembly node}                                                                 
 LARGEST CORRECTION TO ROTATION     8.352E-39   AT NODE          1   DOF  6
   INSTANCE: {assembly node}                                                                 
          THERE IS ZERO MOMENT    EVERYWHERE

 MAXIMUM DIFFERENCE IN CREEP STRAIN INCREMENT IS   2.304E-07
          TIME INCREMENT MAY NOW INCREASE TO     62.1    

 ITERATION SUMMARY FOR THE INCREMENT:   2 TOTAL ITERATIONS, OF WHICH
   0 ARE SEVERE DISCONTINUITY ITERATIONS AND  2 ARE EQUILIBRIUM ITERATIONS.

 TIME INCREMENT COMPLETED   41.4    ,  FRACTION OF STEP COMPLETED  0.621    
 STEP TIME COMPLETED        124.    ,  TOTAL TIME COMPLETED         124.    


  INCREMENT    47 STARTS. ATTEMPT NUMBER  1, TIME INCREMENT   62.1    
 
	SYMMETRIC NEW DIRECT SPARSE SOLVER RUNNING ON
 	1 HOST x 1 MPI RANK PER HOST x 1 THREAD PER RANK
        NUMBER OF EQUATIONS:  3023
        NUMBER OF RHS:        1
        NUMBER OF FLOPS:      3.852e+06
        SOLVER ELAPSED TIME:  9ms

               CONVERGENCE CHECKS FOR EQUILIBRIUM ITERATION     1


 AVERAGE FORCE                       295.       TIME AVG. FORCE        295.    
 LARGEST SCALED RESIDUAL FORCE       1.46       AT NODE        360   DOF  2
   INSTANCE: ELG Specimen 2024-1                                                             
  CORRESPONDING RESIDUAL FORCE       1.46    
 LARGEST INCREMENT OF DISP.         7.336E-03   AT NODE          1   DOF  2
   INSTANCE: {assembly node}                                                                 
 LARGEST CORRECTION TO DISP.       -2.022E-03   AT NODE          1   DOF  2
   INSTANCE: {assembly node}                                                                 
          DISP.    CORRECTION TOO LARGE COMPARED TO DISP.    INCREMENT

 AVERAGE MOMENT                      0.00       TIME AVG. MOMENT       137.    
                                                (FROM FORCE     FIELD)
 ALL MOMENT    RESIDUALS ARE ZERO
 LARGEST INCREMENT OF ROTATION     -1.648E-32   AT NODE          1   DOF  6
   INSTANCE: {assembly node}                                                                 
 LARGEST CORRECTION TO ROTATION     8.234E-33   AT NODE          1   DOF  6
   INSTANCE: {assembly node}                                                                 
          THERE IS ZERO MOMENT    EVERYWHERE
 
	SYMMETRIC NEW DIRECT SPARSE SOLVER RUNNING ON
 	1 HOST x 1 MPI RANK PER HOST x 1 THREAD PER RANK
        NUMBER OF EQUATIONS:  3023
        NUMBER OF RHS:        1
        NUMBER OF FLOPS:      3.852e+06
        SOLVER ELAPSED TIME:  8ms

               CONVERGENCE CHECKS FOR EQUILIBRIUM ITERATION     2


 AVERAGE FORCE                       295.       TIME AVG. FORCE        295.    
 LARGEST SCALED RESIDUAL FORCE     -0.294       AT NODE       1513   DOF  1
   INSTANCE: ELG Specimen 2024-1                                                             
  CORRESPONDING RESIDUAL FORCE     -0.294    
 LARGEST INCREMENT OF DISP.         7.339E-03   AT NODE          1   DOF  2
   INSTANCE: {assembly node}                                                                 
 LARGEST CORRECTION TO DISP.        3.873E-06   AT NODE        367   DOF  2
   INSTANCE: ELG Specimen 2024-1                                                             
          THE FORCE     EQUILIBRIUM EQUATIONS HAVE CONVERGED

 AVERAGE MOMENT                      0.00       TIME AVG. MOMENT       137.    
                                                (FROM FORCE     FIELD)
 ALL MOMENT    RESIDUALS ARE ZERO
 LARGEST INCREMENT OF ROTATION     -1.648E-32   AT NODE          1   DOF  6
   INSTANCE: {assembly node}                                                                 
 LARGEST CORRECTION TO ROTATION     8.647E-39   AT NODE          1   DOF  6
   INSTANCE: {assembly node}                                                                 
          THERE IS ZERO MOMENT    EVERYWHERE

 MAXIMUM DIFFERENCE IN CREEP STRAIN INCREMENT IS   3.190E-07

 ITERATION SUMMARY FOR THE INCREMENT:   2 TOTAL ITERATIONS, OF WHICH
   0 ARE SEVERE DISCONTINUITY ITERATIONS AND  2 ARE EQUILIBRIUM ITERATIONS.

 TIME INCREMENT COMPLETED   62.1    ,  FRACTION OF STEP COMPLETED  0.932    
 STEP TIME COMPLETED        186.    ,  TOTAL TIME COMPLETED         187.    


  INCREMENT    48 STARTS. ATTEMPT NUMBER  1, TIME INCREMENT   13.6    
 
	SYMMETRIC NEW DIRECT SPARSE SOLVER RUNNING ON
 	1 HOST x 1 MPI RANK PER HOST x 1 THREAD PER RANK
        NUMBER OF EQUATIONS:  3023
        NUMBER OF RHS:        1
        NUMBER OF FLOPS:      3.852e+06
        SOLVER ELAPSED TIME:  9ms

               CONVERGENCE CHECKS FOR EQUILIBRIUM ITERATION     1


 AVERAGE FORCE                       295.       TIME AVG. FORCE        295.    
 LARGEST SCALED RESIDUAL FORCE     -2.328E-04   AT NODE       1340   DOF  1
   INSTANCE: ELG Specimen 2024-1                                                             
  CORRESPONDING RESIDUAL FORCE     -2.328E-04
 LARGEST INCREMENT OF DISP.         1.401E-03   AT NODE          1   DOF  2
   INSTANCE: {assembly node}                                                                 
 LARGEST CORRECTION TO DISP.       -2.082E-04   AT NODE          1   DOF  2
   INSTANCE: {assembly node}                                                                 
 ESTIMATE OF DISP.    CORRECTION   -1.576E-07
 FORCE     EQUILIB. ACCEPTED BASED ON SMALL RESIDUAL AND ESTIMATED CORRECTION

 AVERAGE MOMENT                      0.00       TIME AVG. MOMENT       137.    
                                                (FROM FORCE     FIELD)
 ALL MOMENT    RESIDUALS ARE ZERO
 LARGEST INCREMENT OF ROTATION     -1.648E-32   AT NODE          1   DOF  6
   INSTANCE: {assembly node}                                                                 
 LARGEST CORRECTION TO ROTATION    -1.287E-32   AT NODE          1   DOF  6
   INSTANCE: {assembly node}                                                                 
          THERE IS ZERO MOMENT    EVERYWHERE

 MAXIMUM DIFFERENCE IN CREEP STRAIN INCREMENT IS   1.281E-08

 ITERATION SUMMARY FOR THE INCREMENT:   1 TOTAL ITERATIONS, OF WHICH
   0 ARE SEVERE DISCONTINUITY ITERATIONS AND  1 ARE EQUILIBRIUM ITERATIONS.

 TIME INCREMENT COMPLETED   13.6    ,  FRACTION OF STEP COMPLETED   1.00    
 STEP TIME COMPLETED        200.    ,  TOTAL TIME COMPLETED         200.    


          THE ANALYSIS HAS BEEN COMPLETED



     ANALYSIS SUMMARY:
     TOTAL OF         49  INCREMENTS
                       0  CUTBACKS IN AUTOMATIC INCREMENTATION
                     120  ITERATIONS INCLUDING CONTACT ITERATIONS IF PRESENT
                     120  PASSES THROUGH THE EQUATION SOLVER OF WHICH 
                     120  INVOLVE MATRIX DECOMPOSITION, INCLUDING
                       0  DECOMPOSITION(S) OF THE MASS MATRIX
                       1  REORDERING OF EQUATIONS TO MINIMIZE WAVEFRONT
                       0  ADDITIONAL RESIDUAL EVALUATIONS FOR LINE SEARCHES
                       0  ADDITIONAL OPERATOR EVALUATIONS FOR LINE SEARCHES
                       2  WARNING MESSAGES DURING USER INPUT PROCESSING
                       4  WARNING MESSAGES DURING ANALYSIS
                       0  ANALYSIS WARNINGS ARE NUMERICAL PROBLEM MESSAGES
                       0  ANALYSIS WARNINGS ARE NEGATIVE EIGENVALUE MESSAGES
                       0  ERROR MESSAGES



     JOB TIME SUMMARY
       USER TIME (SEC)      =      2.9    
       SYSTEM TIME (SEC)    =     0.40    
       TOTAL CPU TIME (SEC) =      3.3    
       WALLCLOCK TIME (SEC) =           10
       MEMORY PEAK (GB)     =            0
