*Heading
** Job name: Creep_calibrated_280 Model name: Model-1
** Generated by: Abaqus/CAE 2024
*Preprint, echo=NO, model=NO, history=NO, contact=NO
**
** PARTS
**
*Part, name="ELG Specimen 2024"
*Node
      1,           0.,   60.0278625
      2,           5.,   60.0278625
      3,           5.,   75.0278625
      4,           0.,   75.0278625
      5,           0.,         55.5
      6,           3.,         55.5
      7,           5.,   15.0278645
      8,           0.,   15.0278645
      9,           0., 0.0278640445
     10,           5., 0.0278640445
     11,           0.,         19.5
     12,           3.,         19.5
     13,           3.,         37.5
     14,  0.527925432,   60.0278625
     15,   1.05864549,   60.0278625
     16,   1.58382082,   60.0278625
     17,   2.10469055,   60.0278625
     18,   2.62890816,   60.0278625
     19,   3.15812874,   60.0278625
     20,   3.69153404,   60.0278625
** ... 1500 like lines cut
*Element, type=CAX4R
  1,   1,  14, 353,  87
  2,  14,  15, 354, 353
  3,  15,  16, 355, 354
  4,  16,  17, 356, 355
  5,  17,  18, 357, 356
  6,  18,  19, 358, 357
  7,  19,  20, 359, 358
  8,  20,  21, 360, 359
  9,  21,   2,  22, 360
 10,  87, 353, 361,  86
 11, 353, 354, 362, 361
 12, 354, 355, 363, 362
 13, 355, 356, 364, 363
 14, 356, 357, 365, 364
 15, 357, 358, 366, 365
 16, 358, 359, 367, 366
 17, 359, 360, 368, 367
 18, 360,  22,  23, 368
 19,  86, 361, 369,  85
 20, 361, 362, 370, 369
** ... 1339 like lines cut
*Nset, nset=Set-1, generate
    1,  1520,     1
*Elset, elset=Set-1, generate
    1,  1359,     1
** Section: Section-1
*Solid Section, elset=Set-1, material=SS316H_RCC-MR
,
*End Part
**  
**
** ASSEMBLY
**
*Assembly, name=Assembly
**  
*Instance, name="ELG Specimen 2024-1", part="ELG Specimen 2024"
*End Instance
**  
*Node
      1,          2.5,   80.0278625,           0.
*Elset, elset="Gauge Length", instance="ELG Specimen 2024-1"
  271,  272,  273,  274,  275,  276,  277,  278,  279,  280,  281,  282,  283,  284,  285,  286
  287,  288,  622,  623,  624,  625,  626,  627,  628,  629,  630,  631,  632,  633,  634,  635
  636,  637,  638,  639,  640,  641,  642,  643,  644,  645,  646,  647,  648,  649,  650,  651
  652,  653,  654,  655,  656,  657,  658,  659,  660,  661,  662,  663,  664,  665,  666,  667
  668,  669,  670,  671,  672,  673,  674,  675,  676,  677,  678,  679,  680,  681,  682,  683
  684,  685,  686,  687,  688,  689,  690,  691,  692,  693,  694,  695,  696,  697,  698,  699
  700,  701,  702,  703,  704,  705,  706,  707,  708,  709,  710,  711,  712,  713,  714,  715
  716,  717,  718,  719,  720,  721,  722,  723,  724,  725,  726,  727,  728,  729,  730,  731
  732,  733,  734,  735,  736,  737,  738,  739,  740,  741,  742,  743,  744,  745,  746,  747
  748,  749,  750,  751,  752,  753,  754,  755,  756,  757,  758,  759,  760,  761,  762,  763
  764,  765,  766,  767,  768,  769,  770,  771,  772,  773,  774,  775,  776,  777,  778,  779
  780,  781,  782,  783,  784,  785,  786,  787,  788,  789,  790,  791,  792,  793,  794,  795
  796,  797,  798,  799,  800,  801,  802,  803,  804,  805,  806,  807,  808,  809,  810,  811
  812,  813,  814,  815,  816,  817,  818,  819,  820,  821,  822,  823,  824,  825,  826,  827
  828,  829,  830,  831,  832,  833,  834,  835,  836,  837,  838,  839,  840,  841,  842,  843
  844,  845,  846,  847,  848,  849,  850,  851,  852,  853,  854,  855,  856,  857,  858,  859
  860,  861,  862,  863,  864,  865,  866,  867,  868,  869,  870,  871,  872,  873,  874,  875
  876,  877,  878,  879,  880,  881,  882,  883,  884,  885,  886,  887,  888,  889,  890,  891
  892,  893,  894,  895,  896,  897,  898,  899,  900,  901,  902,  903,  904,  905,  906,  907
  908,  909,  910,  911,  912,  913,  914,  915,  916,  917,  918,  919,  920,  921,  922,  923
** ... 24 like lines cut
*Nset, nset=Set-7, instance="ELG Specimen 2024-1"
   7,   8,   9,  10, 112, 113, 114, 115, 116, 117, 118, 119, 120, 121, 122, 123
 124, 125, 126, 127, 128, 129, 130, 131, 132, 133, 134, 135, 136, 137, 138, 139
 140, 141, 142, 143, 144, 145, 146, 147, 148, 149, 150, 151, 152, 153, 154, 155
 156, 157, 158, 159, 160, 161, 162, 163, 164, 165, 166, 167, 168, 169, 170, 171
 172, 173, 174, 175, 176, 177, 178, 179, 180, 181, 182, 183, 184, 185, 649, 650
 651, 652, 653, 654, 655, 656, 657, 658, 659, 660, 661, 662, 663, 664, 665, 666
 667, 668, 669, 670, 671, 672, 673, 674, 675, 676, 677, 678, 679, 680, 681, 682
 683, 684, 685, 686, 687, 688, 689, 690, 691, 692, 693, 694, 695, 696, 697, 698
 699, 700, 701, 702, 703, 704, 705, 706, 707, 708, 709, 710, 711, 712, 713, 714
 715, 716, 717, 718, 719, 720, 721, 722, 723, 724, 725, 726, 727, 728, 729, 730
 731, 732, 733, 734, 735, 736, 737, 738, 739, 740, 741, 742, 743, 744, 745, 746
 747, 748, 749, 750, 751, 752, 753, 754, 755, 756, 757, 758, 759, 760, 761, 762
 763, 764, 765, 766, 767, 768, 769, 770, 771, 772, 773, 774, 775, 776, 777, 778
 779, 780, 781, 782, 783, 784, 785, 786, 787, 788, 789, 790, 791, 792, 793, 794
 795, 796, 797, 798, 799, 800, 801, 802, 803, 804, 805, 806, 807, 808, 809, 810
 811, 812, 813, 814, 815, 816, 817, 818, 819, 820, 821, 822, 823, 824, 825, 826
 827, 828, 829, 830, 831, 832, 833, 834, 835, 836, 837, 838, 839, 840, 841, 842
 843, 844, 845, 846, 847, 848, 849, 850, 851, 852, 853, 854, 855, 856, 857, 858
 859, 860, 861, 862, 863, 864, 865, 866, 867, 868, 869, 870, 871, 872, 873, 874
 875, 876, 877, 878, 879, 880
*Elset, elset=Set-7, instance="ELG Specimen 2024-1", generate
 352,  621,    1
*Nset, nset=Set-8
 1,
*Nset, nset=Set-9
 1,
*Nset, nset=Set-10, instance="ELG Specimen 2024-1", generate
    1,  1520,     1
*Elset, elset=Set-10, instance="ELG Specimen 2024-1", generate
    1,  1359,     1
*Nset, nset=Set-RP
 1,
*Nset, nset=m_Set-6
 1,
*Elset, elset=_s_Surf-4_S3, internal, instance="ELG Specimen 2024-1", generate
 262,  270,    1
*Surface, type=ELEMENT, name=s_Surf-4
_s_Surf-4_S3, S3
** Constraint: Constraint-1
*Coupling, constraint name=Constraint-1, ref node=m_Set-6, surface=s_Surf-4
*Kinematic
*End Assembly
** 
** MATERIALS
** 
*Material, name=SS316H_RCC-MR
*Creep
 2.09381e-16,     4.6, -0.6079
*Elastic
163000., 0.3
*Plastic
 130.272,       0.
 135.363, 0.000686
  140.49,   0.0015
 145.665,  0.00257
 150.884,  0.00388
 156.139,  0.00532
 161.522,  0.00747
 166.878,  0.00931
 172.276,   0.0113
 177.742,   0.0135
  183.29,   0.0161
 188.856,   0.0186
 194.423,    0.021
 200.073,   0.0237
 205.722,   0.0262
 211.338,   0.0284
 217.104,   0.0313
 222.806,   0.0337
 228.614,   0.0364
  234.38,   0.0388
** ... 47 like lines cut
** 
** BOUNDARY CONDITIONS
** 
** Name: BC-2 Type: Symmetry/Antisymmetry/Encastre
*Boundary
Set-7, ENCASTRE
** Name: BC-3 Type: Displacement/Rotation
*Boundary
Set-8, 1, 1
Set-8, 6, 6
** ----------------------------------------------------------------
** 
** STEP: Step-1
** 
*Step, name=Step-1, nlgeom=YES
*Static
0.14, 0.14, 1.4e-06, 0.14
** 
** LOADS
** 
** Name: Load-1   Type: Concentrated force
*Cload
Set-9, 2, 7916.81
** 
** OUTPUT REQUESTS
** 
*Restart, write, frequency=0
** 
** FIELD OUTPUT: F-Output-1
** 
*Output, field
*Node Output
CF, RF, U
*Element Output, directions=YES
LE, PE, PEEQ, PEMAG, S
** 
** HISTORY OUTPUT: H-Output-1
** 
*Output, history, variable=PRESELECT
*End Step
** ----------------------------------------------------------------
** 
** STEP: Step-2
** 
*Step, name=Step-2, nlgeom=YES, inc=9999999
*Visco, cetol=1e-05
1e-06, 200., 1e-09, 200.
** 
** LOADS
** 
** Name: Load-1   Type: Concentrated force
*Cload
Set-9, 2, 7916.81
** 
** OUTPUT REQUESTS
** 
*Restart, write, frequency=0
** 
** FIELD OUTPUT: F-Output-1
** 
*Output, field
*Node Output
CF, RF, U
*Element Output, directions=YES
CE, EE, LE, PE, PEEQ, PEMAG, S
** 
** HISTORY OUTPUT: H-Output-1
** 
*Output, history, variable=PRESELECT
*End Step
